
     RDKit          3D

 10 10  0  0  0  0  0  0  0  0999 V2000
  129.8838  131.5170  124.5688 C   0  0  0  0  0  0  0  0  0  0  0  0
  130.3199  130.4184  124.3297 C   0  0  0  0  0  0  0  0  0  0  0  0
  131.1422  130.0857  123.1963 C   0  0  0  0  0  0  0  0  0  0  0  0
  131.4726  130.9993  122.2500 C   0  0  0  0  0  0  0  0  0  0  0  0
  132.2292  130.7324  121.0545 C   0  0  0  0  0  0  0  0  0  0  0  0
  130.0774  132.6598  123.6497 C   0  0  0  0  0  0  0  0  0  0  0  0
  131.4720  130.1326  119.8171 C   0  0  0  0  0  0  0  0  0  0  0  0
  131.9955  129.0158  119.2135 C   0  0  0  0  0  0  0  0  0  0  0  0
  131.7182  128.4287  117.9700 C   0  0  0  0  0  0  0  0  0  0  0  0
  131.2048  132.3848  122.4658 C   0  0  0  0  0  0  0  0  0  0  0  0
  1  2  2  0
  2  3  1  0
  3  4  2  0
  4  5  1  0
  1  6  1  0
  5  7  1  0
  7  8  1  0
  8  9  1  0
  4 10  1  0
  6 10  2  0
M  END
$$$$

     RDKit          3D

 10 10  0  0  0  0  0  0  0  0999 V2000
  129.8838  131.5170  124.5688 C   0  0  0  0  0  0  0  0  0  0  0  0
  130.3199  130.4184  124.3297 C   0  0  0  0  0  0  0  0  0  0  0  0
  130.2647  132.5612  123.6257 C   0  0  0  0  0  0  0  0  0  0  0  0
  130.1505  129.3000  125.2812 O   0  0  0  0  0  0  0  0  0  0  0  0
  130.9617  132.1766  122.4818 C   0  0  0  0  0  0  0  0  0  0  0  0
  131.4180  133.1852  121.5970 C   0  0  0  0  0  0  0  0  0  0  0  0
  131.9613  132.8898  120.3760 O   0  0  0  0  0  0  0  0  0  0  0  0
  131.3845  134.5070  121.7786 O   0  0  0  0  0  0  0  0  0  0  0  0
  131.1431  130.0503  123.2442 C   0  0  0  0  0  0  0  0  0  0  0  0
  131.1032  130.8996  122.3063 C   0  0  0  0  0  0  0  0  0  0  0  0
  1  2  1  0
  1  3  2  0
  2  4  1  0
  3  5  1  0
  5  6  1  0
  6  7  2  0
  6  8  1  0
  2  9  2  0
  5 10  2  0
  9 10  1  0
M  END
$$$$

     RDKit          3D

 10 10  0  0  0  0  0  0  0  0999 V2000
  125.5036  133.7984  118.2348 C   0  0  0  0  0  0  0  0  0  0  0  0
  125.7490  132.5596  118.2310 C   0  0  0  0  0  0  0  0  0  0  0  0
  125.9821  134.6546  119.2712 C   0  0  0  0  0  0  0  0  0  0  0  0
  125.2709  135.8992  119.5015 N   0  0  0  0  0  0  0  0  0  0  0  0
  126.9792  134.2029  120.1464 C   0  0  0  0  0  0  0  0  0  0  0  0
  126.6050  132.0177  119.2116 C   0  0  0  0  0  0  0  0  0  0  0  0
  127.3070  132.8191  120.1435 C   0  0  0  0  0  0  0  0  0  0  0  0
  126.9552  130.5063  119.0505 C   0  0  0  0  0  0  0  0  0  0  0  0
  128.0846  129.9904  119.5052 C   0  0  0  0  0  0  0  0  0  0  0  0
  128.0990  128.6260  119.9868 C   0  0  0  0  0  0  0  0  0  0  0  0
  1  2  1  0
  1  3  2  0
  3  4  1  0
  3  5  1  0
  2  6  2  0
  5  7  2  0
  6  7  1  0
  6  8  1  0
  8  9  1  0
  9 10  2  0
M  END
$$$$

     RDKit          3D

 11 11  0  0  0  0  0  0  0  0999 V2000
  125.5036  133.7984  118.2348 C   0  0  0  0  0  0  0  0  0  0  0  0
  125.7490  132.5596  118.2310 C   0  0  0  0  0  0  0  0  0  0  0  0
  124.9514  131.5557  117.6931 C   0  0  0  0  0  0  0  0  0  0  0  0
  126.1053  134.8596  119.1117 C   0  0  0  0  0  0  0  0  0  0  0  0
  123.7029  131.6114  117.8392 O   0  0  0  0  0  0  0  0  0  0  0  0
  126.8247  131.9094  118.6998 C   0  0  0  0  0  0  0  0  0  0  0  0
  125.7473  130.4349  117.4102 N   0  0  0  0  0  0  0  0  0  0  0  0
  127.0058  130.5863  118.4041 C   0  0  0  0  0  0  0  0  0  0  0  0
  127.7475  129.9191  118.5676 O   0  0  0  0  0  0  0  0  0  0  0  0
  125.3847  136.0398  119.2499 N   0  0  0  0  0  0  0  0  0  0  0  0
  126.9047  134.4263  119.8728 N   0  0  0  0  0  0  0  0  0  0  0  0
  1  2  2  3
  2  3  1  0
  1  4  1  0
  3  5  2  0
  2  6  1  0
  3  7  1  0
  6  8  1  0
  7  8  1  0
  8  9  2  0
  4 10  2  0
  4 11  1  0
M  END
$$$$

     RDKit          3D

 11 11  0  0  0  0  0  0  0  0999 V2000
  135.1854  127.4076  119.4546 O   0  0  0  0  0  0  0  0  0  0  0  0
  134.8731  128.6181  119.4432 C   0  0  0  0  0  0  0  0  0  0  0  0
  135.7873  129.4388  119.0333 N   0  0  0  0  0  0  0  0  0  0  0  0
  137.0366  129.2266  118.9934 C   0  0  0  0  0  0  0  0  0  0  0  0
  135.0352  130.7244  118.4756 C   0  0  0  0  0  0  0  0  0  0  0  0
  137.8798  130.2490  118.9606 O   0  0  0  0  0  0  0  0  0  0  0  0
  133.5622  130.6363  118.5357 C   0  0  0  0  0  0  0  0  0  0  0  0
  132.6830  131.7296  118.3657 O   0  0  0  0  0  0  0  0  0  0  0  0
  133.5538  128.8753  119.8588 N   0  0  0  0  0  0  0  0  0  0  0  0
  132.9848  129.5149  119.0440 C   0  0  0  0  0  0  0  0  0  0  0  0
  137.5984  127.9480  119.1259 O   0  0  0  0  0  0  0  0  0  0  0  0
  1  2  2  0
  2  3  1  0
  3  4  1  0
  3  5  1  0
  4  6  2  0
  5  7  1  0
  7  8  1  0
  2  9  1  0
  7 10  2  0
  9 10  1  0
  4 11  1  0
M  END
$$$$

     RDKit          3D

 11 11  0  0  0  0  0  0  0  0999 V2000
  131.3337  131.2166  125.6038 C   0  0  0  0  0  0  0  0  0  0  0  0
  130.7135  130.8727  124.5486 C   0  0  0  0  0  0  0  0  0  0  0  0
  132.7006  131.6547  125.3535 C   0  0  0  0  0  0  0  0  0  0  0  0
  129.3021  130.4686  124.6618 N   0  0  0  0  0  0  0  0  0  0  0  0
  131.3907  130.8768  123.3789 C   0  0  0  0  0  0  0  0  0  0  0  0
  130.7830  130.4298  122.2162 N   0  0  0  0  0  0  0  0  0  0  0  0
  131.4206  130.4217  121.0415 C   0  0  0  0  0  0  0  0  0  0  0  0
  130.6208  130.2138  119.8578 C   0  0  0  0  0  0  0  0  0  0  0  0
  133.3105  131.6141  124.1344 C   0  0  0  0  0  0  0  0  0  0  0  0
  131.0294  129.9982  118.5051 C   0  0  0  0  0  0  0  0  0  0  0  0
  132.6079  131.0669  123.0724 C   0  0  0  0  0  0  0  0  0  0  0  0
  1  2  1  0
  1  3  2  0
  2  4  1  0
  2  5  2  0
  5  6  1  0
  6  7  1  0
  7  8  2  3
  3  9  1  0
  8 10  1  0
  5 11  1  0
  9 11  2  0
M  END
$$$$

     RDKit          3D

 12 13  0  0  0  0  0  0  0  0999 V2000
  125.6274  134.6823  119.5579 C   0  0  0  0  0  0  0  0  0  0  0  0
  125.7746  134.6634  118.4198 C   0  0  0  0  0  0  0  0  0  0  0  0
  126.0263  133.6461  120.4563 C   0  0  0  0  0  0  0  0  0  0  0  0
  126.2640  133.5252  117.7993 N   0  0  0  0  0  0  0  0  0  0  0  0
  126.4458  132.5304  119.7217 C   0  0  0  0  0  0  0  0  0  0  0  0
  126.6483  131.2527  120.3084 O   0  0  0  0  0  0  0  0  0  0  0  0
  127.4421  130.2207  119.6064 C   0  0  0  0  0  0  0  0  0  0  0  0
  128.1123  130.5993  118.4692 C   0  0  0  0  0  0  0  0  0  0  0  0
  127.3872  131.3987  117.6682 O   0  0  0  0  0  0  0  0  0  0  0  0
  127.1683  128.9983  119.8983 O   0  0  0  0  0  0  0  0  0  0  0  0
  126.5595  132.6064  118.3696 C   0  0  0  0  0  0  0  0  0  0  0  0
  125.0932  135.6762  117.7911 O   0  0  0  0  0  0  0  0  0  0  0  0
  1  2  2  0
  1  3  1  0
  2  4  1  0
  3  5  2  0
  5  6  1  0
  6  7  1  0
  7  8  1  0
  8  9  1  0
  7 10  2  0
  4 11  1  0
  5 11  1  0
  9 11  1  0
  2 12  1  0
M  END
$$$$

     RDKit          3D

 12 12  0  0  0  0  0  0  0  0999 V2000
  126.0607  133.8595  120.4032 N   0  0  0  0  0  0  0  0  0  0  0  0
  126.3360  134.0176  119.1702 C   0  0  0  0  0  0  0  0  0  0  0  0
  126.9940  133.1250  118.4199 N   0  0  0  0  0  0  0  0  0  0  0  0
  127.3206  131.9250  119.0315 C   0  0  0  0  0  0  0  0  0  0  0  0
  127.8200  130.7922  118.3238 C   0  0  0  0  0  0  0  0  0  0  0  0
  127.1083  131.8465  120.2116 C   0  0  0  0  0  0  0  0  0  0  0  0
  127.5655  129.6553  119.0670 N   0  0  0  0  0  0  0  0  0  0  0  0
  127.9741  128.3159  118.5526 C   0  0  0  0  0  0  0  0  0  0  0  0
  125.5698  135.0201  118.5727 C   0  0  0  0  0  0  0  0  0  0  0  0
  127.1907  129.6569  120.3301 C   0  0  0  0  0  0  0  0  0  0  0  0
  129.1198  128.2292  117.8846 C   0  0  0  0  0  0  0  0  0  0  0  0
  127.9659  130.9771  120.8787 C   0  0  0  0  0  0  0  0  0  0  0  0
  1  2  1  0
  2  3  2  3
  3  4  1  0
  4  5  2  0
  4  6  1  0
  5  7  1  0
  7  8  1  0
  2  9  1  0
  7 10  1  0
  8 11  1  0
  6 12  1  0
 10 12  1  0
M  END
$$$$

     RDKit          3D

 12 12  0  0  0  0  0  0  0  0999 V2000
  126.0607  133.8595  120.4032 N   0  0  0  0  0  0  0  0  0  0  0  0
  126.3360  134.0176  119.1702 C   0  0  0  0  0  0  0  0  0  0  0  0
  126.9940  133.1250  118.4199 N   0  0  0  0  0  0  0  0  0  0  0  0
  127.3206  131.9250  119.0315 C   0  0  0  0  0  0  0  0  0  0  0  0
  127.8200  130.7922  118.3238 C   0  0  0  0  0  0  0  0  0  0  0  0
  127.1083  131.8465  120.2116 C   0  0  0  0  0  0  0  0  0  0  0  0
  127.5655  129.6553  119.0670 N   0  0  0  0  0  0  0  0  0  0  0  0
  127.9741  128.3159  118.5526 C   0  0  0  0  0  0  0  0  0  0  0  0
  125.5698  135.0201  118.5727 C   0  0  0  0  0  0  0  0  0  0  0  0
  127.1907  129.6569  120.3301 C   0  0  0  0  0  0  0  0  0  0  0  0
  129.1198  128.2292  117.8846 C   0  0  0  0  0  0  0  0  0  0  0  0
  127.9659  130.9771  120.8787 C   0  0  0  0  0  0  0  0  0  0  0  0
  1  2  1  0
  2  3  2  3
  3  4  1  0
  4  5  2  0
  4  6  1  0
  5  7  1  0
  7  8  1  0
  2  9  1  0
  7 10  1  0
  8 11  1  0
  6 12  2  0
 10 12  1  0
M  END
$$$$

     RDKit          3D

 12 12  0  0  0  0  0  0  0  0999 V2000
  130.4943  131.1972  124.6497 C   0  0  0  0  0  0  0  0  0  0  0  0
  130.2387  130.0311  124.3355 N   0  0  0  0  0  0  0  0  0  0  0  0
  131.3477  132.0391  123.8502 C   0  0  0  0  0  0  0  0  0  0  0  0
  130.6947  129.5095  123.1598 C   0  0  0  0  0  0  0  0  0  0  0  0
  131.8000  131.5338  122.7018 C   0  0  0  0  0  0  0  0  0  0  0  0
  132.4641  132.4013  121.7636 O   0  0  0  0  0  0  0  0  0  0  0  0
  132.2717  132.0962  120.3272 C   0  0  0  0  0  0  0  0  0  0  0  0
  132.7084  133.0001  119.3306 C   0  0  0  0  0  0  0  0  0  0  0  0
  132.0282  131.0342  120.0457 O   0  0  0  0  0  0  0  0  0  0  0  0
  130.1557  131.7252  125.8934 O   0  0  0  0  0  0  0  0  0  0  0  0
  132.3585  134.3394  119.4742 C   0  0  0  0  0  0  0  0  0  0  0  0
  131.4772  130.3130  122.3099 C   0  0  0  0  0  0  0  0  0  0  0  0
  1  2  2  0
  1  3  1  0
  2  4  1  0
  3  5  2  0
  5  6  1  0
  6  7  1  0
  7  8  1  0
  7  9  2  0
  1 10  1  0
  8 11  2  0
  4 12  2  0
  5 12  1  0
M  END
$$$$

     RDKit          3D

 13 14  0  0  0  0  0  0  0  0999 V2000
  125.6274  134.6823  119.5579 C   0  0  0  0  0  0  0  0  0  0  0  0
  125.7746  134.6634  118.4198 C   0  0  0  0  0  0  0  0  0  0  0  0
  126.0263  133.6461  120.4563 C   0  0  0  0  0  0  0  0  0  0  0  0
  126.2640  133.5252  117.7993 N   0  0  0  0  0  0  0  0  0  0  0  0
  126.4458  132.5304  119.7217 C   0  0  0  0  0  0  0  0  0  0  0  0
  126.6483  131.2527  120.3084 O   0  0  0  0  0  0  0  0  0  0  0  0
  127.4421  130.2207  119.6064 C   0  0  0  0  0  0  0  0  0  0  0  0
  128.1123  130.5993  118.4692 C   0  0  0  0  0  0  0  0  0  0  0  0
  126.4950  132.5154  118.6523 C   0  0  0  0  0  0  0  0  0  0  0  0
  128.9391  129.7732  117.6784 O   0  0  0  0  0  0  0  0  0  0  0  0
  128.1470  129.1378  120.2574 C   0  0  0  0  0  0  0  0  0  0  0  0
  127.5663  131.6820  117.8025 N   0  0  0  0  0  0  0  0  0  0  0  0
  129.4233  128.8388  120.0023 O   0  0  0  0  0  0  0  0  0  0  0  0
  1  2  2  0
  1  3  1  0
  2  4  1  0
  3  5  2  0
  5  6  1  0
  6  7  1  0
  7  8  1  0
  4  9  2  0
  5  9  1  0
  8 10  2  0
  7 11  1  0
  8 12  1  0
  9 12  1  0
 11 13  1  0
M  END
$$$$

     RDKit          3D

 13 13  0  0  0  0  0  0  0  0999 V2000
  131.3337  131.2166  125.6038 C   0  0  0  0  0  0  0  0  0  0  0  0
  130.7135  130.8727  124.5486 C   0  0  0  0  0  0  0  0  0  0  0  0
  131.3338  130.7869  123.3163 O   0  0  0  0  0  0  0  0  0  0  0  0
  132.7014  131.6352  125.3521 C   0  0  0  0  0  0  0  0  0  0  0  0
  129.4595  130.6332  124.3032 O   0  0  0  0  0  0  0  0  0  0  0  0
  131.4056  130.8011  122.1121 C   0  0  0  0  0  0  0  0  0  0  0  0
  130.4463  130.0866  121.2541 C   0  0  0  0  0  0  0  0  0  0  0  0
  132.4734  131.5039  121.5431 C   0  0  0  0  0  0  0  0  0  0  0  0
  132.3358  131.9335  120.1684 C   0  0  0  0  0  0  0  0  0  0  0  0
  130.4112  130.3630  119.9045 C   0  0  0  0  0  0  0  0  0  0  0  0
  131.2334  131.3459  119.3313 C   0  0  0  0  0  0  0  0  0  0  0  0
  129.4271  129.6913  119.1943 C   0  0  0  0  0  0  0  0  0  0  0  0
  133.4113  131.6632  126.3228 C   0  0  0  0  0  0  0  0  0  0  0  0
  1  2  1  0
  2  3  1  0
  1  4  1  0
  2  5  2  0
  3  6  1  0
  6  7  1  0
  6  8  2  0
  8  9  1  0
  7 10  2  0
  9 11  2  0
 10 11  1  0
 10 12  1  0
  4 13  2  0
M  END
$$$$

     RDKit          3D

 14 14  0  0  0  0  0  0  0  0999 V2000
  129.1906  132.0606  122.1776 C   0  0  0  0  0  0  0  0  0  0  0  0
  128.2202  131.1894  121.7572 N   0  0  0  0  0  0  0  0  0  0  0  0
  128.7048  130.2428  120.9293 C   0  0  0  0  0  0  0  0  0  0  0  0
  129.1333  133.0029  123.2666 N   0  0  0  0  0  0  0  0  0  0  0  0
  127.8745  129.0962  120.5321 C   0  0  0  0  0  0  0  0  0  0  0  0
  130.2312  131.7330  121.3558 N   0  0  0  0  0  0  0  0  0  0  0  0
  129.9248  130.4310  120.3447 C   0  0  0  0  0  0  0  0  0  0  0  0
  128.4387  128.1496  119.7308 C   0  0  0  0  0  0  0  0  0  0  0  0
  131.4066  132.3949  121.2870 C   0  0  0  0  0  0  0  0  0  0  0  0
  127.4614  127.3967  118.8242 C   0  0  0  0  0  0  0  0  0  0  0  0
  127.4442  127.8250  117.4464 C   0  0  0  0  0  0  0  0  0  0  0  0
  132.4284  131.8008  121.7395 O   0  0  0  0  0  0  0  0  0  0  0  0
  131.6438  133.6456  120.6407 C   0  0  0  0  0  0  0  0  0  0  0  0
  130.5634  134.0020  119.8255 C   0  0  0  0  0  0  0  0  0  0  0  0
  1  2  2  0
  2  3  1  0
  1  4  1  0
  3  5  2  3
  1  6  1  0
  3  7  1  0
  6  7  1  0
  5  8  1  0
  6  9  1  0
  8 10  1  0
 10 11  1  0
  9 12  2  0
  9 13  1  0
 13 14  2  0
M  END
$$$$

     RDKit          3D

 14 15  0  0  0  0  0  0  0  0999 V2000
  125.0459  134.5763  119.8087 C   0  0  0  0  0  0  0  0  0  0  0  0
  125.8074  134.6169  118.8030 C   0  0  0  0  0  0  0  0  0  0  0  0
  126.8262  133.7309  118.3817 C   0  0  0  0  0  0  0  0  0  0  0  0
  126.9310  132.5089  119.1053 C   0  0  0  0  0  0  0  0  0  0  0  0
  127.6704  131.3337  118.6117 C   0  0  0  0  0  0  0  0  0  0  0  0
  127.0070  130.2723  118.1899 C   0  0  0  0  0  0  0  0  0  0  0  0
  125.6429  130.2635  118.0292 N   0  0  0  0  0  0  0  0  0  0  0  0
  124.9476  129.0801  117.8819 C   0  0  0  0  0  0  0  0  0  0  0  0
  127.9126  129.1320  118.1293 C   0  0  0  0  0  0  0  0  0  0  0  0
  123.6509  129.1618  118.2536 O   0  0  0  0  0  0  0  0  0  0  0  0
  125.1755  133.4221  120.5692 C   0  0  0  0  0  0  0  0  0  0  0  0
  125.6361  128.0716  118.0835 N   0  0  0  0  0  0  0  0  0  0  0  0
  127.0746  128.0826  118.0896 C   0  0  0  0  0  0  0  0  0  0  0  0
  126.1119  132.4956  120.3523 C   0  0  0  0  0  0  0  0  0  0  0  0
  1  2  2  0
  2  3  1  0
  3  4  2  0
  4  5  1  0
  5  6  1  0
  6  7  2  0
  7  8  1  0
  6  9  1  0
  8 10  2  0
  1 11  1  0
  8 12  1  0
  9 13  2  0
 12 13  1  0
  4 14  1  0
 11 14  2  0
M  END
$$$$

     RDKit          3D

 14 15  0  0  0  0  0  0  0  0999 V2000
  134.9072  127.6640  118.6094 O   0  0  0  0  0  0  0  0  0  0  0  0
  134.8340  128.9047  118.7731 C   0  0  0  0  0  0  0  0  0  0  0  0
  133.7204  129.4535  119.3276 N   0  0  0  0  0  0  0  0  0  0  0  0
  135.7614  129.7965  118.5901 N   0  0  0  0  0  0  0  0  0  0  0  0
  132.5710  128.7735  119.7979 C   0  0  0  0  0  0  0  0  0  0  0  0
  133.6700  130.6924  119.3695 C   0  0  0  0  0  0  0  0  0  0  0  0
  131.4083  129.6201  120.0069 C   0  0  0  0  0  0  0  0  0  0  0  0
  130.1187  129.2722  119.5290 C   0  0  0  0  0  0  0  0  0  0  0  0
  134.5829  131.5274  119.3166 N   0  0  0  0  0  0  0  0  0  0  0  0
  131.5555  130.8249  120.6749 C   0  0  0  0  0  0  0  0  0  0  0  0
  130.7390  131.8765  120.3734 C   0  0  0  0  0  0  0  0  0  0  0  0
  135.5517  131.1105  118.8117 C   0  0  0  0  0  0  0  0  0  0  0  0
  129.1400  130.2075  119.6827 C   0  0  0  0  0  0  0  0  0  0  0  0
  129.5830  131.7923  119.5339 C   0  0  0  0  0  0  0  0  0  0  0  0
  1  2  2  0
  2  3  1  0
  2  4  1  0
  3  5  1  0
  3  6  1  0
  5  7  1  0
  7  8  2  0
  6  9  2  0
  7 10  1  0
 10 11  2  0
  4 12  2  0
  9 12  1  0
  8 13  1  0
 11 14  1  0
 13 14  2  0
M  END
$$$$

     RDKit          3D

 15 16  0  0  0  0  0  0  0  0999 V2000
  129.1906  132.0606  122.1776 C   0  0  0  0  0  0  0  0  0  0  0  0
  128.2202  131.1894  121.7572 N   0  0  0  0  0  0  0  0  0  0  0  0
  128.7048  130.2428  120.9293 C   0  0  0  0  0  0  0  0  0  0  0  0
  129.1333  133.0029  123.2666 N   0  0  0  0  0  0  0  0  0  0  0  0
  127.8745  129.0962  120.5321 C   0  0  0  0  0  0  0  0  0  0  0  0
  130.2312  131.7330  121.3558 N   0  0  0  0  0  0  0  0  0  0  0  0
  129.9248  130.4310  120.3447 C   0  0  0  0  0  0  0  0  0  0  0  0
  128.4387  128.1496  119.7308 C   0  0  0  0  0  0  0  0  0  0  0  0
  131.4066  132.3949  121.2870 C   0  0  0  0  0  0  0  0  0  0  0  0
  127.4614  127.3967  118.8242 C   0  0  0  0  0  0  0  0  0  0  0  0
  132.4320  131.7890  121.7274 O   0  0  0  0  0  0  0  0  0  0  0  0
  130.3539  129.6971  119.4178 C   0  0  0  0  0  0  0  0  0  0  0  0
  129.7819  128.2798  119.2793 C   0  0  0  0  0  0  0  0  0  0  0  0
  131.6581  133.6614  120.6843 C   0  0  0  0  0  0  0  0  0  0  0  0
  130.5907  134.0559  119.9025 C   0  0  0  0  0  0  0  0  0  0  0  0
  1  2  2  0
  2  3  1  0
  1  4  1  0
  3  5  2  0
  1  6  1  0
  3  7  1  0
  6  7  1  0
  5  8  1  0
  6  9  1  0
  8 10  1  0
  9 11  2  0
  7 12  2  0
  8 13  2  0
 12 13  1  0
  9 14  1  0
 14 15  2  0
M  END
$$$$

     RDKit          3D

 15 16  0  0  0  0  0  0  0  0999 V2000
  129.1906  132.0606  122.1776 C   0  0  0  0  0  0  0  0  0  0  0  0
  128.2202  131.1894  121.7572 N   0  0  0  0  0  0  0  0  0  0  0  0
  128.7048  130.2428  120.9293 C   0  0  0  0  0  0  0  0  0  0  0  0
  129.1333  133.0029  123.2666 N   0  0  0  0  0  0  0  0  0  0  0  0
  127.8745  129.0962  120.5321 C   0  0  0  0  0  0  0  0  0  0  0  0
  130.2312  131.7330  121.3558 N   0  0  0  0  0  0  0  0  0  0  0  0
  129.9248  130.4310  120.3447 C   0  0  0  0  0  0  0  0  0  0  0  0
  131.4153  132.4019  121.2913 C   0  0  0  0  0  0  0  0  0  0  0  0
  131.4665  133.6999  120.9852 C   0  0  0  0  0  0  0  0  0  0  0  0
  130.2832  134.2223  120.2829 C   0  0  0  0  0  0  0  0  0  0  0  0
  128.3905  128.2116  119.6385 C   0  0  0  0  0  0  0  0  0  0  0  0
  132.8288  134.0900  120.9100 O   0  0  0  0  0  0  0  0  0  0  0  0
  129.4549  128.5847  118.7850 C   0  0  0  0  0  0  0  0  0  0  0  0
  130.3291  129.6608  119.1662 C   0  0  0  0  0  0  0  0  0  0  0  0
  130.3349  135.1381  119.2200 C   0  0  0  0  0  0  0  0  0  0  0  0
  1  2  2  0
  2  3  1  0
  1  4  1  0
  3  5  2  0
  1  6  1  0
  3  7  1  0
  6  7  1  0
  6  8  1  0
  8  9  2  3
  9 10  1  0
  5 11  1  0
  9 12  1  0
 11 13  2  0
  7 14  2  0
 13 14  1  0
 10 15  1  0
M  END
$$$$

     RDKit          3D

 15 16  0  0  0  0  0  0  0  0999 V2000
  134.9072  127.6640  118.6094 O   0  0  0  0  0  0  0  0  0  0  0  0
  134.8340  128.9047  118.7731 C   0  0  0  0  0  0  0  0  0  0  0  0
  133.7204  129.4535  119.3276 N   0  0  0  0  0  0  0  0  0  0  0  0
  135.7614  129.7965  118.5901 N   0  0  0  0  0  0  0  0  0  0  0  0
  132.5710  128.7735  119.7979 C   0  0  0  0  0  0  0  0  0  0  0  0
  133.6700  130.6924  119.3695 C   0  0  0  0  0  0  0  0  0  0  0  0
  131.4083  129.6201  120.0069 C   0  0  0  0  0  0  0  0  0  0  0  0
  130.1187  129.2722  119.5290 C   0  0  0  0  0  0  0  0  0  0  0  0
  134.5829  131.5274  119.3166 N   0  0  0  0  0  0  0  0  0  0  0  0
  131.5555  130.8249  120.6749 C   0  0  0  0  0  0  0  0  0  0  0  0
  129.0149  129.9921  119.9959 C   0  0  0  0  0  0  0  0  0  0  0  0
  129.2052  131.0648  120.8241 C   0  0  0  0  0  0  0  0  0  0  0  0
  130.3718  131.5533  121.3008 C   0  0  0  0  0  0  0  0  0  0  0  0
  135.4997  131.1049  118.8103 C   0  0  0  0  0  0  0  0  0  0  0  0
  127.9325  131.7618  121.3480 O   0  0  0  0  0  0  0  0  0  0  0  0
  1  2  2  0
  2  3  1  0
  2  4  1  0
  3  5  1  0
  3  6  1  0
  5  7  1  0
  7  8  2  0
  6  9  2  0
  7 10  1  0
  8 11  1  0
 11 12  2  0
 10 13  2  0
 12 13  1  0
  4 14  2  0
  9 14  1  0
 12 15  1  0
M  END
$$$$

     RDKit          3D

 15 16  0  0  0  0  0  0  0  0999 V2000
  129.1906  132.0606  122.1776 C   0  0  0  0  0  0  0  0  0  0  0  0
  128.2202  131.1894  121.7572 N   0  0  0  0  0  0  0  0  0  0  0  0
  128.7048  130.2428  120.9293 C   0  0  0  0  0  0  0  0  0  0  0  0
  129.1333  133.0029  123.2666 N   0  0  0  0  0  0  0  0  0  0  0  0
  127.8745  129.0962  120.5321 C   0  0  0  0  0  0  0  0  0  0  0  0
  130.2312  131.7330  121.3558 N   0  0  0  0  0  0  0  0  0  0  0  0
  129.9248  130.4310  120.3447 C   0  0  0  0  0  0  0  0  0  0  0  0
  131.4153  132.4019  121.2913 C   0  0  0  0  0  0  0  0  0  0  0  0
  131.4665  133.6999  120.9852 C   0  0  0  0  0  0  0  0  0  0  0  0
  130.2832  134.2223  120.2829 C   0  0  0  0  0  0  0  0  0  0  0  0
  128.3905  128.2116  119.6385 C   0  0  0  0  0  0  0  0  0  0  0  0
  132.8288  134.0900  120.9100 O   0  0  0  0  0  0  0  0  0  0  0  0
  129.4549  128.5847  118.7850 C   0  0  0  0  0  0  0  0  0  0  0  0
  130.3401  135.1209  119.2093 N   0  0  0  0  0  0  0  0  0  0  0  0
  130.4255  129.8370  119.3710 C   0  0  0  0  0  0  0  0  0  0  0  0
  1  2  2  0
  2  3  1  0
  1  4  1  0
  3  5  2  0
  1  6  1  0
  3  7  1  0
  6  7  1  0
  6  8  1  0
  8  9  2  3
  9 10  1  0
  5 11  1  0
  9 12  1  0
 11 13  2  0
 10 14  1  0
  7 15  2  0
 13 15  1  0
M  END
$$$$

     RDKit          3D

 15 16  0  0  0  0  0  0  0  0999 V2000
  129.1906  132.0606  122.1776 C   0  0  0  0  0  0  0  0  0  0  0  0
  128.2202  131.1894  121.7572 N   0  0  0  0  0  0  0  0  0  0  0  0
  128.7048  130.2428  120.9293 C   0  0  0  0  0  0  0  0  0  0  0  0
  129.1333  133.0029  123.2666 N   0  0  0  0  0  0  0  0  0  0  0  0
  127.8745  129.0962  120.5321 C   0  0  0  0  0  0  0  0  0  0  0  0
  130.2312  131.7330  121.3558 N   0  0  0  0  0  0  0  0  0  0  0  0
  129.9248  130.4310  120.3447 C   0  0  0  0  0  0  0  0  0  0  0  0
  131.4153  132.4019  121.2913 C   0  0  0  0  0  0  0  0  0  0  0  0
  132.4754  131.7176  121.4472 O   0  0  0  0  0  0  0  0  0  0  0  0
  128.3653  128.2185  119.6476 C   0  0  0  0  0  0  0  0  0  0  0  0
  131.7603  133.6777  121.0591 O   0  0  0  0  0  0  0  0  0  0  0  0
  129.4322  128.5807  118.7756 C   0  0  0  0  0  0  0  0  0  0  0  0
  130.5752  129.7503  119.5841 C   0  0  0  0  0  0  0  0  0  0  0  0
  132.5694  134.1070  120.1351 C   0  0  0  0  0  0  0  0  0  0  0  0
  132.3409  135.3107  119.4898 C   0  0  0  0  0  0  0  0  0  0  0  0
  1  2  2  0
  2  3  1  0
  1  4  1  0
  3  5  2  0
  1  6  1  0
  3  7  1  0
  6  7  1  0
  6  8  1  0
  8  9  2  0
  5 10  1  0
  8 11  1  0
 10 12  2  0
  7 13  2  0
 12 13  1  0
 11 14  1  0
 14 15  1  0
M  END
$$$$

     RDKit          3D

 15 16  0  0  0  0  0  0  0  0999 V2000
  125.0459  134.5763  119.8087 C   0  0  0  0  0  0  0  0  0  0  0  0
  125.8074  134.6169  118.8030 C   0  0  0  0  0  0  0  0  0  0  0  0
  126.8262  133.7309  118.3817 C   0  0  0  0  0  0  0  0  0  0  0  0
  126.9310  132.5089  119.1053 C   0  0  0  0  0  0  0  0  0  0  0  0
  127.6704  131.3337  118.6117 C   0  0  0  0  0  0  0  0  0  0  0  0
  127.0070  130.2723  118.1899 C   0  0  0  0  0  0  0  0  0  0  0  0
  125.6429  130.2635  118.0292 N   0  0  0  0  0  0  0  0  0  0  0  0
  124.9476  129.0801  117.8819 C   0  0  0  0  0  0  0  0  0  0  0  0
  127.9126  129.1320  118.1293 C   0  0  0  0  0  0  0  0  0  0  0  0
  125.1574  133.4281  120.5841 C   0  0  0  0  0  0  0  0  0  0  0  0
  125.7723  132.3496  120.0811 C   0  0  0  0  0  0  0  0  0  0  0  0
  123.6486  129.1182  118.1710 N   0  0  0  0  0  0  0  0  0  0  0  0
  127.1243  127.9388  118.2129 C   0  0  0  0  0  0  0  0  0  0  0  0
  125.8401  128.0291  117.8145 C   0  0  0  0  0  0  0  0  0  0  0  0
  129.2391  128.9236  118.2022 O   0  0  0  0  0  0  0  0  0  0  0  0
  1  2  2  0
  2  3  1  0
  3  4  2  0
  4  5  1  0
  5  6  1  0
  6  7  2  0
  7  8  1  0
  6  9  1  0
  1 10  1  0
  4 11  1  0
 10 11  2  0
  8 12  2  0
  9 13  1  0
  8 14  1  0
 13 14  2  0
  9 15  2  0
M  END
$$$$

     RDKit          3D

 16 17  0  0  0  0  0  0  0  0999 V2000
  129.1906  132.0606  122.1776 C   0  0  0  0  0  0  0  0  0  0  0  0
  128.2202  131.1894  121.7572 N   0  0  0  0  0  0  0  0  0  0  0  0
  128.7048  130.2428  120.9293 C   0  0  0  0  0  0  0  0  0  0  0  0
  129.1333  133.0029  123.2666 N   0  0  0  0  0  0  0  0  0  0  0  0
  127.8745  129.0962  120.5321 C   0  0  0  0  0  0  0  0  0  0  0  0
  130.2312  131.7330  121.3558 N   0  0  0  0  0  0  0  0  0  0  0  0
  129.9248  130.4310  120.3447 C   0  0  0  0  0  0  0  0  0  0  0  0
  131.4153  132.4019  121.2913 C   0  0  0  0  0  0  0  0  0  0  0  0
  132.4754  131.7176  121.4472 O   0  0  0  0  0  0  0  0  0  0  0  0
  128.3653  128.2185  119.6476 C   0  0  0  0  0  0  0  0  0  0  0  0
  131.7603  133.6777  121.0591 O   0  0  0  0  0  0  0  0  0  0  0  0
  130.1175  129.5542  119.4645 C   0  0  0  0  0  0  0  0  0  0  0  0
  132.6227  134.1293  120.2432 C   0  0  0  0  0  0  0  0  0  0  0  0
  127.3972  127.4846  118.7417 C   0  0  0  0  0  0  0  0  0  0  0  0
  132.4109  135.3311  119.5794 C   0  0  0  0  0  0  0  0  0  0  0  0
  129.6918  128.2994  119.1234 C   0  0  0  0  0  0  0  0  0  0  0  0
  1  2  2  0
  2  3  1  0
  1  4  1  0
  3  5  2  0
  1  6  1  0
  3  7  1  0
  6  7  1  0
  6  8  1  0
  8  9  2  0
  5 10  1  0
  8 11  1  0
  7 12  2  0
 11 13  1  0
 10 14  1  0
 13 15  1  0
 10 16  2  0
 12 16  1  0
M  END
$$$$

     RDKit          3D

 16 17  0  0  0  0  0  0  0  0999 V2000
  134.9072  127.6640  118.6094 O   0  0  0  0  0  0  0  0  0  0  0  0
  134.8340  128.9047  118.7731 C   0  0  0  0  0  0  0  0  0  0  0  0
  133.7204  129.4535  119.3276 N   0  0  0  0  0  0  0  0  0  0  0  0
  135.7614  129.7965  118.5901 N   0  0  0  0  0  0  0  0  0  0  0  0
  132.5710  128.7735  119.7979 C   0  0  0  0  0  0  0  0  0  0  0  0
  133.6700  130.6924  119.3695 C   0  0  0  0  0  0  0  0  0  0  0  0
  131.4083  129.6201  120.0069 C   0  0  0  0  0  0  0  0  0  0  0  0
  130.1187  129.2722  119.5290 C   0  0  0  0  0  0  0  0  0  0  0  0
  134.5829  131.5274  119.3166 N   0  0  0  0  0  0  0  0  0  0  0  0
  131.5555  130.8249  120.6749 C   0  0  0  0  0  0  0  0  0  0  0  0
  129.0149  129.9921  119.9959 C   0  0  0  0  0  0  0  0  0  0  0  0
  129.2052  131.0648  120.8241 C   0  0  0  0  0  0  0  0  0  0  0  0
  130.3718  131.5533  121.3008 C   0  0  0  0  0  0  0  0  0  0  0  0
  135.4997  131.1049  118.8103 C   0  0  0  0  0  0  0  0  0  0  0  0
  130.3400  132.6249  122.0623 O   0  0  0  0  0  0  0  0  0  0  0  0
  129.5903  133.1045  122.7220 C   0  0  0  0  0  0  0  0  0  0  0  0
  1  2  2  0
  2  3  1  0
  2  4  1  0
  3  5  1  0
  3  6  1  0
  5  7  1  0
  7  8  2  0
  6  9  2  0
  7 10  1  0
  8 11  1  0
 11 12  2  0
 10 13  2  0
 12 13  1  0
  4 14  2  0
  9 14  1  0
 13 15  1  0
 15 16  1  0
M  END
$$$$

     RDKit          3D

 16 17  0  0  0  0  0  0  0  0999 V2000
  129.1906  132.0606  122.1776 C   0  0  0  0  0  0  0  0  0  0  0  0
  128.2202  131.1894  121.7572 N   0  0  0  0  0  0  0  0  0  0  0  0
  128.7048  130.2428  120.9293 C   0  0  0  0  0  0  0  0  0  0  0  0
  129.1333  133.0029  123.2666 N   0  0  0  0  0  0  0  0  0  0  0  0
  127.8745  129.0962  120.5321 C   0  0  0  0  0  0  0  0  0  0  0  0
  130.2312  131.7330  121.3558 N   0  0  0  0  0  0  0  0  0  0  0  0
  129.9248  130.4310  120.3447 C   0  0  0  0  0  0  0  0  0  0  0  0
  131.4153  132.4019  121.2913 C   0  0  0  0  0  0  0  0  0  0  0  0
  132.4754  131.7176  121.4472 O   0  0  0  0  0  0  0  0  0  0  0  0
  128.3653  128.2185  119.6476 C   0  0  0  0  0  0  0  0  0  0  0  0
  131.7603  133.6777  121.0591 O   0  0  0  0  0  0  0  0  0  0  0  0
  130.1175  129.5542  119.4645 C   0  0  0  0  0  0  0  0  0  0  0  0
  132.6227  134.1293  120.2432 C   0  0  0  0  0  0  0  0  0  0  0  0
  127.3972  127.4846  118.7417 C   0  0  0  0  0  0  0  0  0  0  0  0
  129.3356  128.5094  118.9534 C   0  0  0  0  0  0  0  0  0  0  0  0
  132.2890  134.3385  119.1110 C   0  0  0  0  0  0  0  0  0  0  0  0
  1  2  2  0
  2  3  1  0
  1  4  1  0
  3  5  2  0
  1  6  1  0
  3  7  1  0
  6  7  1  0
  6  8  1  0
  8  9  2  0
  5 10  1  0
  8 11  1  0
  7 12  2  0
 11 13  1  0
 10 14  1  0
 10 15  2  0
 12 15  1  0
 13 16  2  0
M  END
$$$$

     RDKit          3D

 16 16  0  0  0  0  0  0  0  0999 V2000
  134.0723  128.4509  118.1403 O   0  0  0  0  0  0  0  0  0  0  0  0
  134.3301  129.1170  118.9726 C   0  0  0  0  0  0  0  0  0  0  0  0
  133.3408  129.6319  119.8369 N   0  0  0  0  0  0  0  0  0  0  0  0
  131.9959  129.7350  119.4434 C   0  0  0  0  0  0  0  0  0  0  0  0
  131.4660  129.6783  118.5668 O   0  0  0  0  0  0  0  0  0  0  0  0
  133.8327  130.1600  121.1537 C   0  0  0  0  0  0  0  0  0  0  0  0
  135.6428  129.4888  119.1815 N   0  0  0  0  0  0  0  0  0  0  0  0
  131.0620  130.0763  120.5380 C   0  0  0  0  0  0  0  0  0  0  0  0
  131.6514  130.2734  121.7438 C   0  0  0  0  0  0  0  0  0  0  0  0
  136.5736  128.8775  118.3985 C   0  0  0  0  0  0  0  0  0  0  0  0
  133.0019  130.2422  122.0017 C   0  0  0  0  0  0  0  0  0  0  0  0
  136.9951  127.6965  118.6106 C   0  0  0  0  0  0  0  0  0  0  0  0
  129.6665  130.2377  120.2533 C   0  0  0  0  0  0  0  0  0  0  0  0
  137.2123  129.7800  117.6004 O   0  0  0  0  0  0  0  0  0  0  0  0
  128.9444  130.7251  121.2821 C   0  0  0  0  0  0  0  0  0  0  0  0
  128.5171  132.0553  121.2627 N   0  0  0  0  0  0  0  0  0  0  0  0
  1  2  2  0
  2  3  1  0
  3  4  1  0
  4  5  2  0
  3  6  1  0
  2  7  1  0
  4  8  1  0
  8  9  2  0
  7 10  1  0
  6 11  2  0
  9 11  1  0
 10 12  1  0
  8 13  1  0
 10 14  2  0
 13 15  1  0
 15 16  1  0
M  END
$$$$

     RDKit          3D

 19 20  0  0  0  0  0  0  0  0999 V2000
  134.0723  128.4509  118.1403 O   0  0  0  0  0  0  0  0  0  0  0  0
  134.3301  129.1170  118.9726 C   0  0  0  0  0  0  0  0  0  0  0  0
  135.6083  129.4776  119.3114 N   0  0  0  0  0  0  0  0  0  0  0  0
  133.2602  129.8226  119.6855 C   0  0  0  0  0  0  0  0  0  0  0  0
  133.6330  130.6469  120.6835 C   0  0  0  0  0  0  0  0  0  0  0  0
  132.5868  131.2721  121.4529 C   0  0  0  0  0  0  0  0  0  0  0  0
  131.3092  130.9956  121.0869 C   0  0  0  0  0  0  0  0  0  0  0  0
  135.9286  130.2822  120.3835 C   0  0  0  0  0  0  0  0  0  0  0  0
  136.5890  128.9191  118.4180 C   0  0  0  0  0  0  0  0  0  0  0  0
  137.1727  130.3430  120.8491 C   0  0  0  0  0  0  0  0  0  0  0  0
  131.9646  129.5627  119.0972 C   0  0  0  0  0  0  0  0  0  0  0  0
  130.1792  131.5092  121.7526 C   0  0  0  0  0  0  0  0  0  0  0  0
  130.0660  132.7561  122.2720 C   0  0  0  0  0  0  0  0  0  0  0  0
  137.8644  129.2318  118.6990 C   0  0  0  0  0  0  0  0  0  0  0  0
  128.9651  133.4105  122.8195 N   0  0  0  0  0  0  0  0  0  0  0  0
  131.1028  133.5823  122.4144 N   0  0  0  0  0  0  0  0  0  0  0  0
  138.1512  129.6993  120.0256 C   0  0  0  0  0  0  0  0  0  0  0  0
  131.0425  130.0388  119.9795 C   0  0  0  0  0  0  0  0  0  0  0  0
  136.2143  128.2359  117.2418 O   0  0  0  0  0  0  0  0  0  0  0  0
  1  2  2  0
  2  3  1  0
  2  4  1  0
  4  5  2  0
  5  6  1  0
  6  7  2  0
  3  8  1  0
  3  9  1  0
  8 10  2  0
  4 11  1  0
  7 12  1  0
 12 13  1  0
  9 14  1  0
 13 15  2  0
 13 16  1  0
 10 17  1  0
 14 17  2  0
  7 18  1  0
 11 18  2  0
  9 19  2  0
M  END
$$$$

     RDKit          3D

 20 22  0  0  0  0  0  0  0  0999 V2000
  134.0723  128.4509  118.1403 O   0  0  0  0  0  0  0  0  0  0  0  0
  134.3301  129.1170  118.9726 C   0  0  0  0  0  0  0  0  0  0  0  0
  135.6083  129.4776  119.3114 N   0  0  0  0  0  0  0  0  0  0  0  0
  133.2602  129.8226  119.6855 C   0  0  0  0  0  0  0  0  0  0  0  0
  131.8877  129.6490  119.3432 C   0  0  0  0  0  0  0  0  0  0  0  0
  135.8859  130.3207  120.4262 C   0  0  0  0  0  0  0  0  0  0  0  0
  133.6551  130.6174  120.7538 C   0  0  0  0  0  0  0  0  0  0  0  0
  137.2369  130.3926  120.8233 C   0  0  0  0  0  0  0  0  0  0  0  0
  132.6779  131.1040  121.6747 C   0  0  0  0  0  0  0  0  0  0  0  0
  130.9673  130.1782  120.1617 C   0  0  0  0  0  0  0  0  0  0  0  0
  132.8639  131.8738  122.7896 C   0  0  0  0  0  0  0  0  0  0  0  0
  131.2812  130.8640  121.2563 C   0  0  0  0  0  0  0  0  0  0  0  0
  136.4915  128.8808  118.3827 C   0  0  0  0  0  0  0  0  0  0  0  0
  132.0709  132.3849  123.3996 C   0  0  0  0  0  0  0  0  0  0  0  0
  130.4438  131.4187  122.2428 C   0  0  0  0  0  0  0  0  0  0  0  0
  138.0134  129.6170  119.8935 C   0  0  0  0  0  0  0  0  0  0  0  0
  130.9023  132.1445  123.3721 C   0  0  0  0  0  0  0  0  0  0  0  0
  137.8026  129.1366  118.5699 C   0  0  0  0  0  0  0  0  0  0  0  0
  130.0585  132.8322  124.4925 C   0  0  0  0  0  0  0  0  0  0  0  0
  136.0595  128.1976  117.1993 O   0  0  0  0  0  0  0  0  0  0  0  0
  1  2  2  0
  2  3  1  0
  2  4  1  0
  4  5  1  0
  3  6  1  0
  4  7  2  0
  6  8  2  0
  7  9  1  0
  5 10  2  0
  9 11  2  0
  9 12  1  0
 10 12  1  0
  3 13  1  0
 11 14  1  0
 12 15  2  0
  8 16  1  0
 14 17  2  0
 15 17  1  0
 13 18  1  0
 16 18  2  0
 17 19  1  0
 13 20  2  0
M  END
$$$$

     RDKit          3D

 22 23  0  0  0  0  0  0  0  0999 V2000
  134.0723  128.4509  118.1403 O   0  0  0  0  0  0  0  0  0  0  0  0
  134.3301  129.1170  118.9726 C   0  0  0  0  0  0  0  0  0  0  0  0
  135.6083  129.4776  119.3114 N   0  0  0  0  0  0  0  0  0  0  0  0
  133.2602  129.8226  119.6855 C   0  0  0  0  0  0  0  0  0  0  0  0
  131.8877  129.6490  119.3432 C   0  0  0  0  0  0  0  0  0  0  0  0
  135.8988  130.3282  120.4281 C   0  0  0  0  0  0  0  0  0  0  0  0
  136.4810  128.8471  118.3318 C   0  0  0  0  0  0  0  0  0  0  0  0
  130.7607  130.0683  120.0947 C   0  0  0  0  0  0  0  0  0  0  0  0
  130.8275  130.3674  121.3767 C   0  0  0  0  0  0  0  0  0  0  0  0
  133.4405  130.4550  120.7551 C   0  0  0  0  0  0  0  0  0  0  0  0
  129.6526  130.5447  122.2086 C   0  0  0  0  0  0  0  0  0  0  0  0
  129.7807  131.1163  123.4485 C   0  0  0  0  0  0  0  0  0  0  0  0
  137.6423  129.3173  118.0934 C   0  0  0  0  0  0  0  0  0  0  0  0
  137.7603  130.6494  118.6763 C   0  0  0  0  0  0  0  0  0  0  0  0
  128.9606  131.9152  124.0620 N   0  0  0  0  0  0  0  0  0  0  0  0
  130.8681  130.9052  124.3663 C   0  0  0  0  0  0  0  0  0  0  0  0
  138.4463  131.6375  118.1278 O   0  0  0  0  0  0  0  0  0  0  0  0
  132.0415  130.5745  122.0124 C   0  0  0  0  0  0  0  0  0  0  0  0
  136.9936  130.9288  119.7355 N   0  0  0  0  0  0  0  0  0  0  0  0
  136.2970  127.5732  117.6405 O   0  0  0  0  0  0  0  0  0  0  0  0
  131.4129  131.9706  125.0325 C   0  0  0  0  0  0  0  0  0  0  0  0
  132.6245  131.7686  125.7437 C   0  0  0  0  0  0  0  0  0  0  0  0
  1  2  2  0
  2  3  1  0
  2  4  1  0
  4  5  2  0
  3  6  1  0
  3  7  1  0
  5  8  1  0
  8  9  2  0
  4 10  1  0
  9 11  1  0
 11 12  1  0
  7 13  1  0
 13 14  1  0
 12 15  2  0
 12 16  1  0
 14 17  2  0
  9 18  1  0
 10 18  1  0
  6 19  2  0
 14 19  1  0
  7 20  2  0
 16 21  2  3
 21 22  1  0
M  END
$$$$
