
     RDKit          3D

 20 22  0  0  0  0  0  0  0  0999 V2000
  135.2144  128.1178  120.2482 C   0  0  0  0  0  0  0  0  0  0  0  0
  134.1912  128.9952  120.0516 C   0  0  0  0  0  0  0  0  0  0  0  0
  134.1595  130.1154  120.4264 C   0  0  0  0  0  0  0  0  0  0  0  0
  133.1239  131.0531  120.1809 C   0  0  0  0  0  0  0  0  0  0  0  0
  132.8929  132.2847  120.5583 C   0  0  0  0  0  0  0  0  0  0  0  0
  131.9719  130.8043  119.2267 C   0  0  0  0  0  0  0  0  0  0  0  0
  131.9117  132.9035  120.3545 C   0  0  0  0  0  0  0  0  0  0  0  0
  130.6888  131.2010  119.4615 C   0  0  0  0  0  0  0  0  0  0  0  0
  136.3757  128.7319  120.7765 C   0  0  0  0  0  0  0  0  0  0  0  0
  129.4921  130.5594  119.0291 C   0  0  0  0  0  0  0  0  0  0  0  0
  129.4179  129.2545  118.8470 C   0  0  0  0  0  0  0  0  0  0  0  0
  128.4271  131.1995  119.4680 C   0  0  0  0  0  0  0  0  0  0  0  0
  136.2968  130.0269  121.2699 C   0  0  0  0  0  0  0  0  0  0  0  0
  130.7599  132.3130  119.7426 C   0  0  0  0  0  0  0  0  0  0  0  0
  127.1810  130.4559  119.2054 C   0  0  0  0  0  0  0  0  0  0  0  0
  128.1406  128.5795  119.0715 C   0  0  0  0  0  0  0  0  0  0  0  0
  135.0626  130.6734  121.1828 N   0  0  0  0  0  0  0  0  0  0  0  0
  127.2969  129.1754  118.5765 C   0  0  0  0  0  0  0  0  0  0  0  0
  131.7758  134.4137  120.7293 C   0  0  0  0  0  0  0  0  0  0  0  0
  126.1972  128.3748  117.9169 C   0  0  0  0  0  0  0  0  0  0  0  0
  1  2  1  0
  2  3  2  0
  3  4  1  0
  4  5  1  0
  4  6  2  0
  5  7  2  0
  6  8  1  0
  1  9  2  0
  8 10  1  0
 10 11  2  0
 10 12  1  0
  9 13  1  0
  7 14  1  0
  8 14  2  0
 12 15  2  0
 11 16  1  0
  3 17  1  0
 13 17  2  0
 15 18  1  0
 16 18  2  0
  7 19  1  0
 18 20  1  0
M  END
$$$$

     RDKit          3D

 20 22  0  0  0  0  0  0  0  0999 V2000
  135.2144  128.1178  120.2482 C   0  0  0  0  0  0  0  0  0  0  0  0
  134.1912  128.9952  120.0516 C   0  0  0  0  0  0  0  0  0  0  0  0
  134.1595  130.1154  120.4264 C   0  0  0  0  0  0  0  0  0  0  0  0
  133.1239  131.0531  120.1809 C   0  0  0  0  0  0  0  0  0  0  0  0
  132.8929  132.2847  120.5583 C   0  0  0  0  0  0  0  0  0  0  0  0
  131.9719  130.8043  119.2267 C   0  0  0  0  0  0  0  0  0  0  0  0
  131.9117  132.9035  120.3545 C   0  0  0  0  0  0  0  0  0  0  0  0
  130.6888  131.2010  119.4615 C   0  0  0  0  0  0  0  0  0  0  0  0
  136.3757  128.7319  120.7765 C   0  0  0  0  0  0  0  0  0  0  0  0
  129.4921  130.5594  119.0291 C   0  0  0  0  0  0  0  0  0  0  0  0
  129.4179  129.2545  118.8470 C   0  0  0  0  0  0  0  0  0  0  0  0
  128.4271  131.1995  119.4680 C   0  0  0  0  0  0  0  0  0  0  0  0
  136.2968  130.0269  121.2699 C   0  0  0  0  0  0  0  0  0  0  0  0
  130.7599  132.3130  119.7426 C   0  0  0  0  0  0  0  0  0  0  0  0
  127.1810  130.4559  119.2054 C   0  0  0  0  0  0  0  0  0  0  0  0
  127.3841  129.1685  118.6178 C   0  0  0  0  0  0  0  0  0  0  0  0
  126.3680  128.3164  118.2564 C   0  0  0  0  0  0  0  0  0  0  0  0
  128.5306  128.5282  118.6703 C   0  0  0  0  0  0  0  0  0  0  0  0
  131.8359  134.4078  120.7976 C   0  0  0  0  0  0  0  0  0  0  0  0
  135.0613  130.6713  121.1788 C   0  0  0  0  0  0  0  0  0  0  0  0
  1  2  1  0
  2  3  2  0
  3  4  1  0
  4  5  1  0
  4  6  2  0
  5  7  2  0
  6  8  1  0
  1  9  2  0
  8 10  1  0
 10 11  2  0
 10 12  1  0
  9 13  1  0
  7 14  1  0
  8 14  2  0
 12 15  2  0
 15 16  1  0
 16 17  1  0
 11 18  1  0
 16 18  2  0
  7 19  1  0
  3 20  1  0
 13 20  2  0
M  END
$$$$

     RDKit          3D

 20 21  0  0  0  0  0  0  0  0999 V2000
  135.2144  128.1178  120.2482 C   0  0  0  0  0  0  0  0  0  0  0  0
  134.1912  128.9952  120.0516 C   0  0  0  0  0  0  0  0  0  0  0  0
  134.1595  130.1154  120.4264 C   0  0  0  0  0  0  0  0  0  0  0  0
  133.1239  131.0531  120.1809 C   0  0  0  0  0  0  0  0  0  0  0  0
  132.8929  132.2847  120.5583 C   0  0  0  0  0  0  0  0  0  0  0  0
  131.9719  130.8043  119.2267 C   0  0  0  0  0  0  0  0  0  0  0  0
  131.9117  132.9035  120.3545 C   0  0  0  0  0  0  0  0  0  0  0  0
  130.6888  131.2010  119.4615 C   0  0  0  0  0  0  0  0  0  0  0  0
  136.3757  128.7319  120.7765 C   0  0  0  0  0  0  0  0  0  0  0  0
  129.4921  130.5594  119.0291 C   0  0  0  0  0  0  0  0  0  0  0  0
  136.2893  130.0409  121.2281 C   0  0  0  0  0  0  0  0  0  0  0  0
  129.4113  129.2671  118.8527 C   0  0  0  0  0  0  0  0  0  0  0  0
  128.4246  131.2031  119.4631 C   0  0  0  0  0  0  0  0  0  0  0  0
  135.0615  130.6956  121.1773 C   0  0  0  0  0  0  0  0  0  0  0  0
  127.1298  130.6081  119.0894 C   0  0  0  0  0  0  0  0  0  0  0  0
  126.0273  131.0991  119.2576 O   0  0  0  0  0  0  0  0  0  0  0  0
  127.1460  129.5342  118.4365 C   0  0  0  0  0  0  0  0  0  0  0  0
  128.3854  128.7785  118.2061 C   0  0  0  0  0  0  0  0  0  0  0  0
  131.5160  134.2511  120.5146 C   0  0  0  0  0  0  0  0  0  0  0  0
  125.9642  128.7755  117.9153 C   0  0  0  0  0  0  0  0  0  0  0  0
  1  2  1  0
  2  3  2  0
  3  4  1  0
  4  5  1  0
  4  6  2  3
  5  7  2  3
  6  8  1  0
  1  9  2  0
  8 10  1  0
  9 11  1  0
 10 12  2  0
 10 13  1  0
  3 14  1  0
 11 14  2  0
 13 15  2  0
 15 16  1  0
 15 17  1  0
 12 18  1  0
 17 18  2  0
  7 19  1  0
 17 20  1  0
M  END
$$$$

     RDKit          3D

 20 22  0  0  0  0  0  0  0  0999 V2000
  135.2144  128.1178  120.2482 C   0  0  0  0  0  0  0  0  0  0  0  0
  134.1912  128.9952  120.0516 C   0  0  0  0  0  0  0  0  0  0  0  0
  134.1595  130.1154  120.4264 C   0  0  0  0  0  0  0  0  0  0  0  0
  133.1239  131.0531  120.1809 C   0  0  0  0  0  0  0  0  0  0  0  0
  132.8929  132.2847  120.5583 C   0  0  0  0  0  0  0  0  0  0  0  0
  131.9719  130.8043  119.2267 C   0  0  0  0  0  0  0  0  0  0  0  0
  131.6426  132.9755  120.1145 C   0  0  0  0  0  0  0  0  0  0  0  0
  130.6782  131.1373  119.4835 C   0  0  0  0  0  0  0  0  0  0  0  0
  136.3825  128.7309  120.7628 C   0  0  0  0  0  0  0  0  0  0  0  0
  129.5011  130.4833  119.0279 C   0  0  0  0  0  0  0  0  0  0  0  0
  128.3392  130.8949  119.7959 C   0  0  0  0  0  0  0  0  0  0  0  0
  128.3708  132.1187  120.4282 N   0  0  0  0  0  0  0  0  0  0  0  0
  130.4400  132.0630  120.4116 C   0  0  0  0  0  0  0  0  0  0  0  0
  129.3789  132.2443  121.2708 C   0  0  0  0  0  0  0  0  0  0  0  0
  136.3048  130.0381  121.2203 C   0  0  0  0  0  0  0  0  0  0  0  0
  129.1713  132.5117  122.6348 N   0  0  0  0  0  0  0  0  0  0  0  0
  129.9957  131.6717  123.3486 C   0  0  0  0  0  0  0  0  0  0  0  0
  130.9185  130.9840  122.9617 O   0  0  0  0  0  0  0  0  0  0  0  0
  129.7721  131.7840  124.5418 N   0  0  0  0  0  0  0  0  0  0  0  0
  135.2947  130.5787  121.1459 C   0  0  0  0  0  0  0  0  0  0  0  0
  1  2  1  0
  2  3  2  0
  3  4  1  0
  4  5  1  0
  4  6  2  0
  5  7  2  0
  6  8  1  0
  1  9  2  0
  8 10  1  0
 10 11  2  0
 11 12  1  0
  7 13  1  0
  8 13  2  0
 12 14  2  0
 13 14  1  0
  9 15  1  0
 14 16  1  0
 16 17  1  0
 17 18  2  0
 17 19  1  0
  3 20  1  0
 15 20  2  0
M  END
$$$$

     RDKit          3D

 21 23  0  0  0  0  0  0  0  0999 V2000
  135.2144  128.1178  120.2482 C   0  0  0  0  0  0  0  0  0  0  0  0
  134.1912  128.9952  120.0516 C   0  0  0  0  0  0  0  0  0  0  0  0
  134.1595  130.1154  120.4264 C   0  0  0  0  0  0  0  0  0  0  0  0
  133.1239  131.0531  120.1809 C   0  0  0  0  0  0  0  0  0  0  0  0
  132.8929  132.2847  120.5583 C   0  0  0  0  0  0  0  0  0  0  0  0
  131.9719  130.8043  119.2267 C   0  0  0  0  0  0  0  0  0  0  0  0
  131.9117  132.9035  120.3545 C   0  0  0  0  0  0  0  0  0  0  0  0
  130.6888  131.2010  119.4615 C   0  0  0  0  0  0  0  0  0  0  0  0
  136.3757  128.7319  120.7765 C   0  0  0  0  0  0  0  0  0  0  0  0
  129.4921  130.5594  119.0291 C   0  0  0  0  0  0  0  0  0  0  0  0
  129.4179  129.2545  118.8470 C   0  0  0  0  0  0  0  0  0  0  0  0
  128.4271  131.1995  119.4680 C   0  0  0  0  0  0  0  0  0  0  0  0
  128.2547  132.2521  120.2391 N   0  0  0  0  0  0  0  0  0  0  0  0
  130.7684  132.2724  119.7711 C   0  0  0  0  0  0  0  0  0  0  0  0
  136.2936  130.0301  121.2579 C   0  0  0  0  0  0  0  0  0  0  0  0
  127.2795  130.5419  119.0202 C   0  0  0  0  0  0  0  0  0  0  0  0
  127.5048  129.2364  118.4267 C   0  0  0  0  0  0  0  0  0  0  0  0
  128.6674  128.4616  118.4944 C   0  0  0  0  0  0  0  0  0  0  0  0
  126.3900  128.2612  117.8905 C   0  0  0  0  0  0  0  0  0  0  0  0
  131.7895  134.4149  120.8744 C   0  0  0  0  0  0  0  0  0  0  0  0
  135.0593  130.6754  121.1660 N   0  0  0  0  0  0  0  0  0  0  0  0
  1  2  1  0
  2  3  2  0
  3  4  1  0
  4  5  1  0
  4  6  2  0
  5  7  2  0
  6  8  1  0
  1  9  2  0
  8 10  1  0
 10 11  2  0
 10 12  1  0
 12 13  1  0
  7 14  1  0
  8 14  2  0
  9 15  1  0
 12 16  2  0
 16 17  1  0
 11 18  1  0
 17 18  2  0
 17 19  1  0
  7 20  1  0
  3 21  1  0
 15 21  2  0
M  END
$$$$

     RDKit          3D

 21 23  0  0  0  0  0  0  0  0999 V2000
  135.2144  128.1178  120.2482 C   0  0  0  0  0  0  0  0  0  0  0  0
  134.1912  128.9952  120.0516 C   0  0  0  0  0  0  0  0  0  0  0  0
  134.1595  130.1154  120.4264 C   0  0  0  0  0  0  0  0  0  0  0  0
  133.1239  131.0531  120.1809 C   0  0  0  0  0  0  0  0  0  0  0  0
  132.8929  132.2847  120.5583 C   0  0  0  0  0  0  0  0  0  0  0  0
  131.9719  130.8043  119.2267 C   0  0  0  0  0  0  0  0  0  0  0  0
  131.9117  132.9035  120.3545 C   0  0  0  0  0  0  0  0  0  0  0  0
  130.6888  131.2010  119.4615 C   0  0  0  0  0  0  0  0  0  0  0  0
  136.3757  128.7319  120.7765 C   0  0  0  0  0  0  0  0  0  0  0  0
  129.4921  130.5594  119.0291 C   0  0  0  0  0  0  0  0  0  0  0  0
  129.4179  129.2545  118.8470 C   0  0  0  0  0  0  0  0  0  0  0  0
  128.4271  131.1995  119.4680 C   0  0  0  0  0  0  0  0  0  0  0  0
  128.2547  132.2521  120.2391 N   0  0  0  0  0  0  0  0  0  0  0  0
  130.7684  132.2724  119.7711 C   0  0  0  0  0  0  0  0  0  0  0  0
  136.2936  130.0301  121.2579 C   0  0  0  0  0  0  0  0  0  0  0  0
  127.2795  130.5419  119.0202 C   0  0  0  0  0  0  0  0  0  0  0  0
  127.5048  129.2364  118.4267 C   0  0  0  0  0  0  0  0  0  0  0  0
  128.6674  128.4616  118.4944 C   0  0  0  0  0  0  0  0  0  0  0  0
  131.7721  134.4113  120.8836 C   0  0  0  0  0  0  0  0  0  0  0  0
  135.0588  130.6741  121.1635 C   0  0  0  0  0  0  0  0  0  0  0  0
  126.3569  128.3623  117.9795 C   0  0  0  0  0  0  0  0  0  0  0  0
  1  2  1  0
  2  3  2  0
  3  4  1  0
  4  5  1  0
  4  6  2  0
  5  7  2  0
  6  8  1  0
  1  9  2  0
  8 10  1  0
 10 11  2  0
 10 12  1  0
 12 13  1  0
  7 14  1  0
  8 14  2  0
  9 15  1  0
 12 16  2  0
 16 17  1  0
 11 18  1  0
 17 18  2  0
  7 19  1  0
  3 20  1  0
 15 20  2  0
 17 21  1  0
M  END
$$$$

     RDKit          3D

 21 23  0  0  0  0  0  0  0  0999 V2000
  135.2144  128.1178  120.2482 C   0  0  0  0  0  0  0  0  0  0  0  0
  134.1912  128.9952  120.0516 C   0  0  0  0  0  0  0  0  0  0  0  0
  134.1595  130.1154  120.4264 C   0  0  0  0  0  0  0  0  0  0  0  0
  133.1239  131.0531  120.1809 C   0  0  0  0  0  0  0  0  0  0  0  0
  132.8929  132.2847  120.5583 C   0  0  0  0  0  0  0  0  0  0  0  0
  131.9719  130.8043  119.2267 C   0  0  0  0  0  0  0  0  0  0  0  0
  131.9117  132.9035  120.3545 C   0  0  0  0  0  0  0  0  0  0  0  0
  130.6888  131.2010  119.4615 C   0  0  0  0  0  0  0  0  0  0  0  0
  136.3757  128.7319  120.7765 C   0  0  0  0  0  0  0  0  0  0  0  0
  129.4921  130.5594  119.0291 C   0  0  0  0  0  0  0  0  0  0  0  0
  129.4179  129.2545  118.8470 C   0  0  0  0  0  0  0  0  0  0  0  0
  128.4271  131.1995  119.4680 C   0  0  0  0  0  0  0  0  0  0  0  0
  128.2547  132.2521  120.2391 N   0  0  0  0  0  0  0  0  0  0  0  0
  130.7684  132.2724  119.7711 C   0  0  0  0  0  0  0  0  0  0  0  0
  136.2936  130.0301  121.2579 C   0  0  0  0  0  0  0  0  0  0  0  0
  127.3753  130.5503  119.1310 N   0  0  0  0  0  0  0  0  0  0  0  0
  127.4775  129.2099  118.9742 C   0  0  0  0  0  0  0  0  0  0  0  0
  131.7729  134.4019  120.8908 C   0  0  0  0  0  0  0  0  0  0  0  0
  135.0603  130.6780  121.1683 C   0  0  0  0  0  0  0  0  0  0  0  0
  126.4805  128.4358  118.4334 C   0  0  0  0  0  0  0  0  0  0  0  0
  128.4064  128.5231  119.2708 N   0  0  0  0  0  0  0  0  0  0  0  0
  1  2  1  0
  2  3  2  0
  3  4  1  0
  4  5  1  0
  4  6  2  0
  5  7  2  0
  6  8  1  0
  1  9  2  0
  8 10  1  0
 10 11  2  0
 10 12  1  0
 12 13  1  0
  7 14  1  0
  8 14  2  0
  9 15  1  0
 12 16  2  0
 16 17  1  0
  7 18  1  0
  3 19  1  0
 15 19  2  0
 17 20  1  0
 11 21  1  0
 17 21  2  0
M  END
$$$$

     RDKit          3D

 21 23  0  0  0  0  0  0  0  0999 V2000
  135.2144  128.1178  120.2482 C   0  0  0  0  0  0  0  0  0  0  0  0
  134.1912  128.9952  120.0516 C   0  0  0  0  0  0  0  0  0  0  0  0
  134.1595  130.1154  120.4264 C   0  0  0  0  0  0  0  0  0  0  0  0
  133.1239  131.0531  120.1809 C   0  0  0  0  0  0  0  0  0  0  0  0
  132.8929  132.2847  120.5583 C   0  0  0  0  0  0  0  0  0  0  0  0
  131.9719  130.8043  119.2267 C   0  0  0  0  0  0  0  0  0  0  0  0
  131.9117  132.9035  120.3545 C   0  0  0  0  0  0  0  0  0  0  0  0
  130.6888  131.2010  119.4615 C   0  0  0  0  0  0  0  0  0  0  0  0
  136.3757  128.7319  120.7765 C   0  0  0  0  0  0  0  0  0  0  0  0
  129.4921  130.5594  119.0291 C   0  0  0  0  0  0  0  0  0  0  0  0
  129.4179  129.2545  118.8470 C   0  0  0  0  0  0  0  0  0  0  0  0
  136.2931  130.0347  121.2486 C   0  0  0  0  0  0  0  0  0  0  0  0
  128.4318  131.4256  119.7832 C   0  0  0  0  0  0  0  0  0  0  0  0
  130.7593  132.3021  119.7544 C   0  0  0  0  0  0  0  0  0  0  0  0
  127.1387  130.7626  119.6284 C   0  0  0  0  0  0  0  0  0  0  0  0
  126.1044  131.2353  120.1068 O   0  0  0  0  0  0  0  0  0  0  0  0
  128.0799  128.6466  118.9644 C   0  0  0  0  0  0  0  0  0  0  0  0
  127.0229  129.4188  119.3486 C   0  0  0  0  0  0  0  0  0  0  0  0
  131.7875  134.4320  120.7931 C   0  0  0  0  0  0  0  0  0  0  0  0
  125.7742  128.7020  119.2800 O   0  0  0  0  0  0  0  0  0  0  0  0
  135.0578  130.6779  121.1498 N   0  0  0  0  0  0  0  0  0  0  0  0
  1  2  1  0
  2  3  2  0
  3  4  1  0
  4  5  1  0
  4  6  2  0
  5  7  2  0
  6  8  1  0
  1  9  2  0
  8 10  1  0
 10 11  2  0
  9 12  1  0
 10 13  1  0
  7 14  1  0
  8 14  2  0
 13 15  2  0
 15 16  1  0
 11 17  1  0
 15 18  1  0
 17 18  2  0
  7 19  1  0
 18 20  1  0
  3 21  1  0
 12 21  2  0
M  END
$$$$

     RDKit          3D

 21 23  0  0  0  0  0  0  0  0999 V2000
  135.2144  128.1178  120.2482 C   0  0  0  0  0  0  0  0  0  0  0  0
  134.1912  128.9952  120.0516 C   0  0  0  0  0  0  0  0  0  0  0  0
  134.1595  130.1154  120.4264 C   0  0  0  0  0  0  0  0  0  0  0  0
  133.1239  131.0531  120.1809 C   0  0  0  0  0  0  0  0  0  0  0  0
  132.8929  132.2847  120.5583 C   0  0  0  0  0  0  0  0  0  0  0  0
  131.9719  130.8043  119.2267 C   0  0  0  0  0  0  0  0  0  0  0  0
  131.9117  132.9035  120.3545 C   0  0  0  0  0  0  0  0  0  0  0  0
  130.6888  131.2010  119.4615 C   0  0  0  0  0  0  0  0  0  0  0  0
  136.3757  128.7319  120.7765 C   0  0  0  0  0  0  0  0  0  0  0  0
  129.4921  130.5594  119.0291 C   0  0  0  0  0  0  0  0  0  0  0  0
  129.4179  129.2545  118.8470 C   0  0  0  0  0  0  0  0  0  0  0  0
  128.4271  131.1995  119.4680 C   0  0  0  0  0  0  0  0  0  0  0  0
  128.2547  132.2521  120.2391 N   0  0  0  0  0  0  0  0  0  0  0  0
  130.7684  132.2724  119.7711 C   0  0  0  0  0  0  0  0  0  0  0  0
  136.2936  130.0301  121.2579 C   0  0  0  0  0  0  0  0  0  0  0  0
  127.3753  130.5503  119.1310 N   0  0  0  0  0  0  0  0  0  0  0  0
  127.4775  129.2099  118.9742 C   0  0  0  0  0  0  0  0  0  0  0  0
  128.6241  128.4309  119.2331 C   0  0  0  0  0  0  0  0  0  0  0  0
  135.0589  130.6742  121.1628 N   0  0  0  0  0  0  0  0  0  0  0  0
  131.8792  134.4097  120.8001 C   0  0  0  0  0  0  0  0  0  0  0  0
  126.4330  128.3138  118.7762 C   0  0  0  0  0  0  0  0  0  0  0  0
  1  2  1  0
  2  3  2  0
  3  4  1  0
  4  5  1  0
  4  6  2  0
  5  7  2  0
  6  8  1  0
  1  9  2  0
  8 10  1  0
 10 11  2  0
 10 12  1  0
 12 13  1  0
  7 14  1  0
  8 14  2  0
  9 15  1  0
 12 16  2  0
 16 17  1  0
 11 18  1  0
 17 18  2  0
  3 19  1  0
 15 19  2  0
  7 20  1  0
 17 21  1  0
M  END
$$$$

     RDKit          3D

 21 23  0  0  0  0  0  0  0  0999 V2000
  135.2144  128.1178  120.2482 C   0  0  0  0  0  0  0  0  0  0  0  0
  134.1912  128.9952  120.0516 C   0  0  0  0  0  0  0  0  0  0  0  0
  134.1595  130.1154  120.4264 C   0  0  0  0  0  0  0  0  0  0  0  0
  133.1239  131.0531  120.1809 C   0  0  0  0  0  0  0  0  0  0  0  0
  132.8929  132.2847  120.5583 C   0  0  0  0  0  0  0  0  0  0  0  0
  131.9719  130.8043  119.2267 C   0  0  0  0  0  0  0  0  0  0  0  0
  131.9117  132.9035  120.3545 C   0  0  0  0  0  0  0  0  0  0  0  0
  130.6888  131.2010  119.4615 C   0  0  0  0  0  0  0  0  0  0  0  0
  136.3757  128.7319  120.7765 C   0  0  0  0  0  0  0  0  0  0  0  0
  129.4921  130.5594  119.0291 C   0  0  0  0  0  0  0  0  0  0  0  0
  129.4179  129.2545  118.8470 C   0  0  0  0  0  0  0  0  0  0  0  0
  128.4271  131.1995  119.4680 C   0  0  0  0  0  0  0  0  0  0  0  0
  128.2547  132.2521  120.2391 N   0  0  0  0  0  0  0  0  0  0  0  0
  130.7684  132.2724  119.7711 C   0  0  0  0  0  0  0  0  0  0  0  0
  136.2936  130.0301  121.2579 C   0  0  0  0  0  0  0  0  0  0  0  0
  127.3753  130.5503  119.1310 N   0  0  0  0  0  0  0  0  0  0  0  0
  127.4775  129.2099  118.9742 C   0  0  0  0  0  0  0  0  0  0  0  0
  128.6241  128.4309  119.2331 C   0  0  0  0  0  0  0  0  0  0  0  0
  126.4281  128.3237  118.7783 N   0  0  0  0  0  0  0  0  0  0  0  0
  131.7984  134.4145  120.8745 C   0  0  0  0  0  0  0  0  0  0  0  0
  135.0589  130.6747  121.1642 C   0  0  0  0  0  0  0  0  0  0  0  0
  1  2  1  0
  2  3  2  0
  3  4  1  0
  4  5  1  0
  4  6  2  0
  5  7  2  0
  6  8  1  0
  1  9  2  0
  8 10  1  0
 10 11  2  0
 10 12  1  0
 12 13  1  0
  7 14  1  0
  8 14  2  0
  9 15  1  0
 12 16  2  0
 16 17  1  0
 11 18  1  0
 17 18  2  0
 17 19  1  0
  7 20  1  0
  3 21  1  0
 15 21  2  0
M  END
$$$$

     RDKit          3D

 21 20  0  0  0  0  0  0  0  0999 V2000
  135.2144  128.1178  120.2482 C   0  0  0  0  0  0  0  0  0  0  0  0
  134.1912  128.9952  120.0516 C   0  0  0  0  0  0  0  0  0  0  0  0
  134.1595  130.1154  120.4264 C   0  0  0  0  0  0  0  0  0  0  0  0
  133.1239  131.0531  120.1809 C   0  0  0  0  0  0  0  0  0  0  0  0
  132.8929  132.2847  120.5583 C   0  0  0  0  0  0  0  0  0  0  0  0
  132.1704  130.4332  119.2987 C   0  0  0  0  0  0  0  0  0  0  0  0
  130.8804  130.8258  119.1455 C   0  0  0  0  0  0  0  0  0  0  0  0
  129.7575  130.0191  118.7594 C   0  0  0  0  0  0  0  0  0  0  0  0
  128.4847  130.3109  119.4046 C   0  0  0  0  0  0  0  0  0  0  0  0
  131.9473  132.8387  120.2957 C   0  0  0  0  0  0  0  0  0  0  0  0
  127.4289  129.5556  119.1970 C   0  0  0  0  0  0  0  0  0  0  0  0
  131.4748  134.1561  120.4927 C   0  0  0  0  0  0  0  0  0  0  0  0
  128.2610  131.2629  120.0618 C   0  0  0  0  0  0  0  0  0  0  0  0
  130.7525  134.7667  119.8496 N   0  0  0  0  0  0  0  0  0  0  0  0
  127.5595  132.4750  119.6449 C   0  0  0  0  0  0  0  0  0  0  0  0
  126.8741  133.4273  120.2640 C   0  0  0  0  0  0  0  0  0  0  0  0
  128.9299  131.2862  121.3918 C   0  0  0  0  0  0  0  0  0  0  0  0
  125.8256  134.1235  119.5964 C   0  0  0  0  0  0  0  0  0  0  0  0
  124.9273  135.0001  119.9724 N   0  0  0  0  0  0  0  0  0  0  0  0
  125.5045  133.8371  118.3152 C   0  0  0  0  0  0  0  0  0  0  0  0
  128.2701  130.5403  122.3291 C   0  0  0  0  0  0  0  0  0  0  0  0
  1  2  1  0
  2  3  2  3
  3  4  1  0
  4  5  1  0
  4  6  2  3
  6  7  1  0
  7  8  2  3
  8  9  1  0
  5 10  2  3
  9 11  2  0
 10 12  1  0
  9 13  1  0
 12 14  2  0
 13 15  2  3
 15 16  1  0
 13 17  1  0
 16 18  2  3
 18 19  1  0
 18 20  1  0
 17 21  1  0
M  END
$$$$

     RDKit          3D

 21 23  0  0  0  0  0  0  0  0999 V2000
  135.2144  128.1178  120.2482 C   0  0  0  0  0  0  0  0  0  0  0  0
  134.1912  128.9952  120.0516 C   0  0  0  0  0  0  0  0  0  0  0  0
  134.1595  130.1154  120.4264 C   0  0  0  0  0  0  0  0  0  0  0  0
  133.1239  131.0531  120.1809 C   0  0  0  0  0  0  0  0  0  0  0  0
  132.8929  132.2847  120.5583 C   0  0  0  0  0  0  0  0  0  0  0  0
  131.9719  130.8043  119.2267 C   0  0  0  0  0  0  0  0  0  0  0  0
  131.9117  132.9035  120.3545 C   0  0  0  0  0  0  0  0  0  0  0  0
  130.6888  131.2010  119.4615 C   0  0  0  0  0  0  0  0  0  0  0  0
  136.3757  128.7319  120.7765 C   0  0  0  0  0  0  0  0  0  0  0  0
  129.4921  130.5594  119.0291 C   0  0  0  0  0  0  0  0  0  0  0  0
  136.2893  130.0409  121.2281 C   0  0  0  0  0  0  0  0  0  0  0  0
  129.4113  129.2671  118.8527 C   0  0  0  0  0  0  0  0  0  0  0  0
  128.4246  131.2031  119.4631 C   0  0  0  0  0  0  0  0  0  0  0  0
  135.0615  130.6956  121.1773 C   0  0  0  0  0  0  0  0  0  0  0  0
  127.1298  130.6081  119.0894 C   0  0  0  0  0  0  0  0  0  0  0  0
  126.0273  131.0991  119.2576 O   0  0  0  0  0  0  0  0  0  0  0  0
  127.1460  129.5342  118.4365 C   0  0  0  0  0  0  0  0  0  0  0  0
  128.3854  128.7785  118.2061 C   0  0  0  0  0  0  0  0  0  0  0  0
  130.8020  132.2934  119.6638 C   0  0  0  0  0  0  0  0  0  0  0  0
  125.2546  131.3532  118.1656 C   0  0  0  0  0  0  0  0  0  0  0  0
  131.8654  134.4066  120.7658 C   0  0  0  0  0  0  0  0  0  0  0  0
  1  2  1  0
  2  3  2  0
  3  4  1  0
  4  5  1  0
  4  6  2  0
  5  7  2  0
  6  8  1  0
  1  9  2  0
  8 10  1  0
  9 11  1  0
 10 12  2  0
 10 13  1  0
  3 14  1  0
 11 14  2  0
 13 15  2  0
 15 16  1  0
 15 17  1  0
 12 18  1  0
 17 18  2  0
  7 19  1  0
  8 19  2  0
 16 20  1  0
  7 21  1  0
M  END
$$$$

     RDKit          3D

 21 23  0  0  0  0  0  0  0  0999 V2000
  135.2144  128.1178  120.2482 C   0  0  0  0  0  0  0  0  0  0  0  0
  134.1912  128.9952  120.0516 C   0  0  0  0  0  0  0  0  0  0  0  0
  134.1595  130.1154  120.4264 C   0  0  0  0  0  0  0  0  0  0  0  0
  133.1239  131.0531  120.1809 C   0  0  0  0  0  0  0  0  0  0  0  0
  132.8929  132.2847  120.5583 C   0  0  0  0  0  0  0  0  0  0  0  0
  131.9719  130.8043  119.2267 C   0  0  0  0  0  0  0  0  0  0  0  0
  131.9117  132.9035  120.3545 C   0  0  0  0  0  0  0  0  0  0  0  0
  130.6888  131.2010  119.4615 C   0  0  0  0  0  0  0  0  0  0  0  0
  136.3757  128.7319  120.7765 C   0  0  0  0  0  0  0  0  0  0  0  0
  129.4921  130.5594  119.0291 C   0  0  0  0  0  0  0  0  0  0  0  0
  129.4179  129.2545  118.8470 C   0  0  0  0  0  0  0  0  0  0  0  0
  128.4271  131.1995  119.4680 C   0  0  0  0  0  0  0  0  0  0  0  0
  128.2547  132.2521  120.2391 N   0  0  0  0  0  0  0  0  0  0  0  0
  130.7684  132.2724  119.7711 C   0  0  0  0  0  0  0  0  0  0  0  0
  136.2936  130.0301  121.2579 C   0  0  0  0  0  0  0  0  0  0  0  0
  127.3753  130.5503  119.1310 N   0  0  0  0  0  0  0  0  0  0  0  0
  127.4775  129.2099  118.9742 C   0  0  0  0  0  0  0  0  0  0  0  0
  131.7729  134.4019  120.8908 C   0  0  0  0  0  0  0  0  0  0  0  0
  135.0603  130.6780  121.1683 C   0  0  0  0  0  0  0  0  0  0  0  0
  126.4805  128.4358  118.4334 C   0  0  0  0  0  0  0  0  0  0  0  0
  128.6228  128.5477  119.3993 C   0  0  0  0  0  0  0  0  0  0  0  0
  1  2  1  0
  2  3  2  0
  3  4  1  0
  4  5  1  0
  4  6  2  0
  5  7  2  0
  6  8  1  0
  1  9  2  0
  8 10  1  0
 10 11  2  0
 10 12  1  0
 12 13  1  0
  7 14  1  0
  8 14  2  0
  9 15  1  0
 12 16  2  0
 16 17  1  0
  7 18  1  0
  3 19  1  0
 15 19  2  0
 17 20  1  0
 11 21  1  0
 17 21  2  0
M  END
$$$$

     RDKit          3D

 21 23  0  0  0  0  0  0  0  0999 V2000
  135.2144  128.1178  120.2482 C   0  0  0  0  0  0  0  0  0  0  0  0
  134.1912  128.9952  120.0516 C   0  0  0  0  0  0  0  0  0  0  0  0
  134.1595  130.1154  120.4264 C   0  0  0  0  0  0  0  0  0  0  0  0
  133.1239  131.0531  120.1809 C   0  0  0  0  0  0  0  0  0  0  0  0
  132.8929  132.2847  120.5583 C   0  0  0  0  0  0  0  0  0  0  0  0
  131.9719  130.8043  119.2267 C   0  0  0  0  0  0  0  0  0  0  0  0
  131.9117  132.9035  120.3545 C   0  0  0  0  0  0  0  0  0  0  0  0
  130.6888  131.2010  119.4615 C   0  0  0  0  0  0  0  0  0  0  0  0
  136.3757  128.7319  120.7765 C   0  0  0  0  0  0  0  0  0  0  0  0
  129.4921  130.5594  119.0291 C   0  0  0  0  0  0  0  0  0  0  0  0
  129.4179  129.2545  118.8470 C   0  0  0  0  0  0  0  0  0  0  0  0
  136.2931  130.0347  121.2486 C   0  0  0  0  0  0  0  0  0  0  0  0
  128.4318  131.4256  119.7832 C   0  0  0  0  0  0  0  0  0  0  0  0
  130.7593  132.3021  119.7544 C   0  0  0  0  0  0  0  0  0  0  0  0
  127.1387  130.7626  119.6284 C   0  0  0  0  0  0  0  0  0  0  0  0
  126.1044  131.2353  120.1068 O   0  0  0  0  0  0  0  0  0  0  0  0
  128.0799  128.6466  118.9644 C   0  0  0  0  0  0  0  0  0  0  0  0
  131.7710  134.4306  120.8162 C   0  0  0  0  0  0  0  0  0  0  0  0
  135.0584  130.6798  121.1510 C   0  0  0  0  0  0  0  0  0  0  0  0
  127.0461  129.7681  118.9292 C   0  0  0  0  0  0  0  0  0  0  0  0
  125.9551  129.0977  118.3961 C   0  0  0  0  0  0  0  0  0  0  0  0
  1  2  1  0
  2  3  2  0
  3  4  1  0
  4  5  1  0
  4  6  2  0
  5  7  2  0
  6  8  1  0
  1  9  2  0
  8 10  1  0
 10 11  2  0
  9 12  1  0
 10 13  1  0
  7 14  1  0
  8 14  2  0
 13 15  2  0
 15 16  1  0
 11 17  1  0
  7 18  1  0
  3 19  1  0
 12 19  2  0
 15 20  1  0
 17 20  2  0
 20 21  1  0
M  END
$$$$

     RDKit          3D

 21 23  0  0  0  0  0  0  0  0999 V2000
  135.2144  128.1178  120.2482 C   0  0  0  0  0  0  0  0  0  0  0  0
  134.1912  128.9952  120.0516 C   0  0  0  0  0  0  0  0  0  0  0  0
  134.1595  130.1154  120.4264 C   0  0  0  0  0  0  0  0  0  0  0  0
  133.1239  131.0531  120.1809 C   0  0  0  0  0  0  0  0  0  0  0  0
  132.8929  132.2847  120.5583 C   0  0  0  0  0  0  0  0  0  0  0  0
  131.9719  130.8043  119.2267 C   0  0  0  0  0  0  0  0  0  0  0  0
  131.9117  132.9035  120.3545 C   0  0  0  0  0  0  0  0  0  0  0  0
  130.6888  131.2010  119.4615 C   0  0  0  0  0  0  0  0  0  0  0  0
  136.3757  128.7319  120.7765 C   0  0  0  0  0  0  0  0  0  0  0  0
  129.4921  130.5594  119.0291 C   0  0  0  0  0  0  0  0  0  0  0  0
  129.4179  129.2545  118.8470 C   0  0  0  0  0  0  0  0  0  0  0  0
  136.2931  130.0347  121.2486 C   0  0  0  0  0  0  0  0  0  0  0  0
  128.4318  131.4256  119.7832 C   0  0  0  0  0  0  0  0  0  0  0  0
  130.7593  132.3021  119.7544 C   0  0  0  0  0  0  0  0  0  0  0  0
  127.1387  130.7626  119.6284 C   0  0  0  0  0  0  0  0  0  0  0  0
  131.7479  134.4066  120.8363 C   0  0  0  0  0  0  0  0  0  0  0  0
  126.1031  131.2467  120.1036 O   0  0  0  0  0  0  0  0  0  0  0  0
  127.2306  129.6030  118.9869 C   0  0  0  0  0  0  0  0  0  0  0  0
  135.0604  130.6827  121.1541 N   0  0  0  0  0  0  0  0  0  0  0  0
  126.2461  128.7488  118.6863 C   0  0  0  0  0  0  0  0  0  0  0  0
  128.2842  129.0629  118.6345 C   0  0  0  0  0  0  0  0  0  0  0  0
  1  2  1  0
  2  3  2  0
  3  4  1  0
  4  5  1  0
  4  6  2  0
  5  7  2  0
  6  8  1  0
  1  9  2  0
  8 10  1  0
 10 11  2  0
  9 12  1  0
 10 13  1  0
  7 14  1  0
  8 14  2  0
 13 15  2  0
  7 16  1  0
 15 17  1  0
 15 18  1  0
  3 19  1  0
 12 19  2  0
 18 20  1  0
 11 21  1  0
 18 21  2  0
M  END
$$$$

     RDKit          3D

 21 23  0  0  0  0  0  0  0  0999 V2000
  135.2144  128.1178  120.2482 C   0  0  0  0  0  0  0  0  0  0  0  0
  134.1912  128.9952  120.0516 C   0  0  0  0  0  0  0  0  0  0  0  0
  134.1595  130.1154  120.4264 C   0  0  0  0  0  0  0  0  0  0  0  0
  133.1239  131.0531  120.1809 C   0  0  0  0  0  0  0  0  0  0  0  0
  132.8929  132.2847  120.5583 C   0  0  0  0  0  0  0  0  0  0  0  0
  131.9719  130.8043  119.2267 C   0  0  0  0  0  0  0  0  0  0  0  0
  131.9117  132.9035  120.3545 C   0  0  0  0  0  0  0  0  0  0  0  0
  130.6888  131.2010  119.4615 C   0  0  0  0  0  0  0  0  0  0  0  0
  136.3757  128.7319  120.7765 C   0  0  0  0  0  0  0  0  0  0  0  0
  129.4921  130.5594  119.0291 C   0  0  0  0  0  0  0  0  0  0  0  0
  129.4179  129.2545  118.8470 C   0  0  0  0  0  0  0  0  0  0  0  0
  136.2931  130.0347  121.2486 C   0  0  0  0  0  0  0  0  0  0  0  0
  128.4318  131.4256  119.7832 C   0  0  0  0  0  0  0  0  0  0  0  0
  130.7593  132.3021  119.7544 C   0  0  0  0  0  0  0  0  0  0  0  0
  127.1387  130.7626  119.6284 C   0  0  0  0  0  0  0  0  0  0  0  0
  126.1044  131.2353  120.1068 O   0  0  0  0  0  0  0  0  0  0  0  0
  128.0799  128.6466  118.9644 C   0  0  0  0  0  0  0  0  0  0  0  0
  127.0229  129.4188  119.3486 C   0  0  0  0  0  0  0  0  0  0  0  0
  125.7966  128.6244  119.2552 O   0  0  0  0  0  0  0  0  0  0  0  0
  131.8445  134.4115  120.7903 C   0  0  0  0  0  0  0  0  0  0  0  0
  135.0583  130.6794  121.1481 C   0  0  0  0  0  0  0  0  0  0  0  0
  1  2  1  0
  2  3  2  0
  3  4  1  0
  4  5  1  0
  4  6  2  0
  5  7  2  0
  6  8  1  0
  1  9  2  0
  8 10  1  0
 10 11  2  0
  9 12  1  0
 10 13  1  0
  7 14  1  0
  8 14  2  0
 13 15  2  0
 15 16  1  0
 11 17  1  0
 15 18  1  0
 17 18  2  0
 18 19  1  0
  7 20  1  0
  3 21  1  0
 12 21  2  0
M  END
$$$$

     RDKit          3D

 22 24  0  0  0  0  0  0  0  0999 V2000
  135.2144  128.1178  120.2482 C   0  0  0  0  0  0  0  0  0  0  0  0
  134.1912  128.9952  120.0516 C   0  0  0  0  0  0  0  0  0  0  0  0
  134.1595  130.1154  120.4264 C   0  0  0  0  0  0  0  0  0  0  0  0
  133.1239  131.0531  120.1809 C   0  0  0  0  0  0  0  0  0  0  0  0
  132.8929  132.2847  120.5583 C   0  0  0  0  0  0  0  0  0  0  0  0
  131.9719  130.8043  119.2267 C   0  0  0  0  0  0  0  0  0  0  0  0
  131.6426  132.9755  120.1145 C   0  0  0  0  0  0  0  0  0  0  0  0
  130.6782  131.1373  119.4835 C   0  0  0  0  0  0  0  0  0  0  0  0
  129.5029  130.5275  119.0195 C   0  0  0  0  0  0  0  0  0  0  0  0
  128.3628  130.8904  119.8347 C   0  0  0  0  0  0  0  0  0  0  0  0
  128.4824  131.9307  120.7208 C   0  0  0  0  0  0  0  0  0  0  0  0
  129.5594  132.8057  120.8324 C   0  0  0  0  0  0  0  0  0  0  0  0
  129.8521  133.6782  121.8395 N   0  0  0  0  0  0  0  0  0  0  0  0
  130.0283  133.1363  122.9963 C   0  0  0  0  0  0  0  0  0  0  0  0
  129.9120  131.7536  123.0123 C   0  0  0  0  0  0  0  0  0  0  0  0
  130.3472  130.9395  123.9605 C   0  0  0  0  0  0  0  0  0  0  0  0
  130.5573  131.9740  120.5286 C   0  0  0  0  0  0  0  0  0  0  0  0
  136.3698  128.7083  120.8259 C   0  0  0  0  0  0  0  0  0  0  0  0
  130.6429  131.2443  125.1157 C   0  0  0  0  0  0  0  0  0  0  0  0
  136.2766  130.0094  121.3232 C   0  0  0  0  0  0  0  0  0  0  0  0
  135.2756  130.5804  121.1736 N   0  0  0  0  0  0  0  0  0  0  0  0
  131.6527  130.4927  125.8360 C   0  0  0  0  0  0  0  0  0  0  0  0
  1  2  1  0
  2  3  2  0
  3  4  1  0
  4  5  1  0
  4  6  2  0
  5  7  2  0
  6  8  1  0
  8  9  1  0
  9 10  2  0
 10 11  1  0
 11 12  2  0
 12 13  1  0
 13 14  2  3
 14 15  1  0
 15 16  1  0
  7 17  1  0
  8 17  2  0
 12 17  1  0
  1 18  2  0
 16 19  1  0
 18 20  1  0
  3 21  1  0
 20 21  2  0
 19 22  2  0
M  END
$$$$

     RDKit          3D

 22 24  0  0  0  0  0  0  0  0999 V2000
  135.2144  128.1178  120.2482 C   0  0  0  0  0  0  0  0  0  0  0  0
  134.1912  128.9952  120.0516 C   0  0  0  0  0  0  0  0  0  0  0  0
  134.1595  130.1154  120.4264 C   0  0  0  0  0  0  0  0  0  0  0  0
  133.1239  131.0531  120.1809 C   0  0  0  0  0  0  0  0  0  0  0  0
  132.8929  132.2847  120.5583 C   0  0  0  0  0  0  0  0  0  0  0  0
  131.9719  130.8043  119.2267 C   0  0  0  0  0  0  0  0  0  0  0  0
  131.9117  132.9035  120.3545 C   0  0  0  0  0  0  0  0  0  0  0  0
  130.6888  131.2010  119.4615 C   0  0  0  0  0  0  0  0  0  0  0  0
  136.3757  128.7319  120.7765 C   0  0  0  0  0  0  0  0  0  0  0  0
  129.4921  130.5594  119.0291 C   0  0  0  0  0  0  0  0  0  0  0  0
  129.4179  129.2545  118.8470 C   0  0  0  0  0  0  0  0  0  0  0  0
  128.4271  131.1995  119.4680 C   0  0  0  0  0  0  0  0  0  0  0  0
  128.2547  132.2521  120.2391 N   0  0  0  0  0  0  0  0  0  0  0  0
  130.7684  132.2724  119.7711 C   0  0  0  0  0  0  0  0  0  0  0  0
  136.2936  130.0301  121.2579 C   0  0  0  0  0  0  0  0  0  0  0  0
  127.3753  130.5503  119.1310 N   0  0  0  0  0  0  0  0  0  0  0  0
  135.0596  130.6777  121.1719 N   0  0  0  0  0  0  0  0  0  0  0  0
  128.0579  128.7664  118.6261 C   0  0  0  0  0  0  0  0  0  0  0  0
  131.7616  134.3878  120.8191 C   0  0  0  0  0  0  0  0  0  0  0  0
  127.0036  129.5964  118.5677 C   0  0  0  0  0  0  0  0  0  0  0  0
  127.6780  127.5370  118.2715 C   0  0  0  0  0  0  0  0  0  0  0  0
  126.3956  127.4170  117.5660 C   0  0  0  0  0  0  0  0  0  0  0  0
  1  2  1  0
  2  3  2  0
  3  4  1  0
  4  5  1  0
  4  6  2  0
  5  7  2  0
  6  8  1  0
  1  9  2  0
  8 10  1  0
 10 11  2  0
 10 12  1  0
 12 13  1  0
  7 14  1  0
  8 14  2  0
  9 15  1  0
 12 16  2  0
  3 17  1  0
 15 17  2  0
 11 18  1  0
  7 19  1  0
 16 20  1  0
 18 20  2  0
 18 21  1  0
 21 22  1  0
M  END
$$$$

     RDKit          3D

 23 25  0  0  0  0  0  0  0  0999 V2000
  135.2144  128.1178  120.2482 C   0  0  0  0  0  0  0  0  0  0  0  0
  134.1912  128.9952  120.0516 C   0  0  0  0  0  0  0  0  0  0  0  0
  134.1595  130.1154  120.4264 C   0  0  0  0  0  0  0  0  0  0  0  0
  133.1239  131.0531  120.1809 C   0  0  0  0  0  0  0  0  0  0  0  0
  132.8929  132.2847  120.5583 C   0  0  0  0  0  0  0  0  0  0  0  0
  131.9719  130.8043  119.2267 C   0  0  0  0  0  0  0  0  0  0  0  0
  131.6426  132.9755  120.1145 C   0  0  0  0  0  0  0  0  0  0  0  0
  130.6782  131.1373  119.4835 C   0  0  0  0  0  0  0  0  0  0  0  0
  129.5029  130.5275  119.0195 C   0  0  0  0  0  0  0  0  0  0  0  0
  128.3628  130.8904  119.8347 C   0  0  0  0  0  0  0  0  0  0  0  0
  128.4824  131.9307  120.7208 C   0  0  0  0  0  0  0  0  0  0  0  0
  129.5594  132.8057  120.8324 C   0  0  0  0  0  0  0  0  0  0  0  0
  129.8521  133.6782  121.8395 N   0  0  0  0  0  0  0  0  0  0  0  0
  130.0283  133.1363  122.9963 C   0  0  0  0  0  0  0  0  0  0  0  0
  129.9120  131.7536  123.0123 C   0  0  0  0  0  0  0  0  0  0  0  0
  130.3472  130.9395  123.9605 C   0  0  0  0  0  0  0  0  0  0  0  0
  130.5573  131.9740  120.5286 C   0  0  0  0  0  0  0  0  0  0  0  0
  136.3698  128.7083  120.8259 C   0  0  0  0  0  0  0  0  0  0  0  0
  130.6429  131.2443  125.1157 C   0  0  0  0  0  0  0  0  0  0  0  0
  136.2766  130.0094  121.3232 C   0  0  0  0  0  0  0  0  0  0  0  0
  130.5646  129.5589  123.6508 C   0  0  0  0  0  0  0  0  0  0  0  0
  131.3500  132.3409  125.4599 C   0  0  0  0  0  0  0  0  0  0  0  0
  135.0339  130.6396  121.2582 N   0  0  0  0  0  0  0  0  0  0  0  0
  1  2  1  0
  2  3  2  0
  3  4  1  0
  4  5  1  0
  4  6  2  0
  5  7  2  0
  6  8  1  0
  8  9  1  0
  9 10  2  0
 10 11  1  0
 11 12  2  0
 12 13  1  0
 13 14  2  3
 14 15  1  0
 15 16  1  0
  7 17  1  0
  8 17  2  0
 12 17  1  0
  1 18  2  0
 16 19  1  0
 18 20  1  0
 16 21  2  0
 19 22  2  0
  3 23  1  0
 20 23  2  0
M  END
$$$$

     RDKit          3D

 23 25  0  0  0  0  0  0  0  0999 V2000
  135.2144  128.1178  120.2482 C   0  0  0  0  0  0  0  0  0  0  0  0
  134.1912  128.9952  120.0516 C   0  0  0  0  0  0  0  0  0  0  0  0
  134.1595  130.1154  120.4264 C   0  0  0  0  0  0  0  0  0  0  0  0
  133.1239  131.0531  120.1809 C   0  0  0  0  0  0  0  0  0  0  0  0
  132.8929  132.2847  120.5583 C   0  0  0  0  0  0  0  0  0  0  0  0
  131.9719  130.8043  119.2267 C   0  0  0  0  0  0  0  0  0  0  0  0
  131.6426  132.9755  120.1145 C   0  0  0  0  0  0  0  0  0  0  0  0
  130.6782  131.1373  119.4835 C   0  0  0  0  0  0  0  0  0  0  0  0
  129.5029  130.5275  119.0195 C   0  0  0  0  0  0  0  0  0  0  0  0
  128.3628  130.8904  119.8347 C   0  0  0  0  0  0  0  0  0  0  0  0
  128.4824  131.9307  120.7208 C   0  0  0  0  0  0  0  0  0  0  0  0
  129.5594  132.8057  120.8324 C   0  0  0  0  0  0  0  0  0  0  0  0
  129.8521  133.6782  121.8395 N   0  0  0  0  0  0  0  0  0  0  0  0
  130.0283  133.1363  122.9963 C   0  0  0  0  0  0  0  0  0  0  0  0
  129.9120  131.7536  123.0123 C   0  0  0  0  0  0  0  0  0  0  0  0
  130.3472  130.9395  123.9605 C   0  0  0  0  0  0  0  0  0  0  0  0
  130.5573  131.9740  120.5286 C   0  0  0  0  0  0  0  0  0  0  0  0
  136.3698  128.7083  120.8259 C   0  0  0  0  0  0  0  0  0  0  0  0
  130.6429  131.2443  125.1157 C   0  0  0  0  0  0  0  0  0  0  0  0
  136.2766  130.0094  121.3232 C   0  0  0  0  0  0  0  0  0  0  0  0
  130.5646  129.5589  123.6508 C   0  0  0  0  0  0  0  0  0  0  0  0
  131.3500  132.3409  125.4599 C   0  0  0  0  0  0  0  0  0  0  0  0
  135.0339  130.6396  121.2582 C   0  0  0  0  0  0  0  0  0  0  0  0
  1  2  1  0
  2  3  2  0
  3  4  1  0
  4  5  1  0
  4  6  2  0
  5  7  2  0
  6  8  1  0
  8  9  1  0
  9 10  2  0
 10 11  1  0
 11 12  2  0
 12 13  1  0
 13 14  2  3
 14 15  1  0
 15 16  1  0
  7 17  1  0
  8 17  2  0
 12 17  1  0
  1 18  2  0
 16 19  1  0
 18 20  1  0
 16 21  2  0
 19 22  2  0
  3 23  1  0
 20 23  2  0
M  END
$$$$
