
     RDKit          3D

 14 15  0  0  0  0  0  0  0  0999 V2000
  125.4950  133.7984  118.2379 C   0  0  0  0  0  0  0  0  0  0  0  0
  125.4514  134.7260  119.1254 C   0  0  0  0  0  0  0  0  0  0  0  0
  124.3676  135.6837  119.1680 N   0  0  0  0  0  0  0  0  0  0  0  0
  126.2386  134.7776  120.1699 C   0  0  0  0  0  0  0  0  0  0  0  0
  127.1834  133.7525  120.3085 N   0  0  0  0  0  0  0  0  0  0  0  0
  127.1863  132.7613  119.4491 C   0  0  0  0  0  0  0  0  0  0  0  0
  127.7206  131.4113  119.6759 C   0  0  0  0  0  0  0  0  0  0  0  0
  127.5502  130.4403  118.7180 C   0  0  0  0  0  0  0  0  0  0  0  0
  127.0923  130.7509  117.4164 C   0  0  0  0  0  0  0  0  0  0  0  0
  126.6763  132.1389  117.2621 C   0  0  0  0  0  0  0  0  0  0  0  0
  127.9046  128.9358  118.8270 C   0  0  0  0  0  0  0  0  0  0  0  0
  126.5186  132.9818  117.9970 C   0  0  0  0  0  0  0  0  0  0  0  0
  128.7653  128.4827  119.7822 N   0  0  0  0  0  0  0  0  0  0  0  0
  127.4108  127.9568  118.1062 N   0  0  0  0  0  0  0  0  0  0  0  0
  1  2  2  0
  2  3  1  0
  2  4  1  0
  4  5  2  0
  5  6  1  0
  6  7  1  0
  7  8  2  0
  8  9  1  0
  9 10  2  0
  8 11  1  0
  1 12  1  0
  6 12  2  0
 10 12  1  0
 11 13  1  0
 11 14  2  0
M  END
$$$$
