
     RDKit          3D

 15 15  0  0  0  0  0  0  0  0999 V2000
  131.4619  130.7802  124.4989 C   0  0  0  0  0  0  0  0  0  0  0  0
  131.9633  131.8998  124.3353 C   0  0  0  0  0  0  0  0  0  0  0  0
  131.4787  129.7497  123.5203 C   0  0  0  0  0  0  0  0  0  0  0  0
  132.4165  132.4324  123.0575 C   0  0  0  0  0  0  0  0  0  0  0  0
  132.1732  133.8741  122.7225 C   0  0  0  0  0  0  0  0  0  0  0  0
  131.9425  130.0177  122.2829 C   0  0  0  0  0  0  0  0  0  0  0  0
  131.3797  134.0465  121.5133 C   0  0  0  0  0  0  0  0  0  0  0  0
  131.8490  129.0076  121.1197 C   0  0  0  0  0  0  0  0  0  0  0  0
  131.5789  129.5630  120.1131 C   0  0  0  0  0  0  0  0  0  0  0  0
  131.2033  135.2329  120.7920 C   0  0  0  0  0  0  0  0  0  0  0  0
  130.9384  130.7641  119.9744 C   0  0  0  0  0  0  0  0  0  0  0  0
  130.7734  133.1284  120.9474 C   0  0  0  0  0  0  0  0  0  0  0  0
  130.8423  130.4660  125.8745 O   0  0  0  0  0  0  0  0  0  0  0  0
  130.3866  131.2427  118.7163 C   0  0  0  0  0  0  0  0  0  0  0  0
  130.8692  131.6408  121.0637 C   0  0  0  0  0  0  0  0  0  0  0  0
  1  2  2  0
  1  3  1  0
  2  4  1  0
  4  5  1  0
  3  6  2  0
  5  7  1  0
  6  8  1  0
  8  9  2  0
  7 10  2  0
  9 11  1  0
  7 12  1  0
  1 13  1  0
 11 14  2  0
 11 15  1  0
 12 15  1  0
M  END
$$$$
