
     RDKit          3D

 16 17  0  0  0  0  0  0  0  0999 V2000
  129.3755  130.7530  124.3132 N   0  0  0  0  0  0  0  0  0  0  0  0
  130.5287  130.7603  123.7240 C   0  0  0  0  0  0  0  0  0  0  0  0
  131.6625  130.9864  124.4868 C   0  0  0  0  0  0  0  0  0  0  0  0
  130.6475  130.5623  122.3551 N   0  0  0  0  0  0  0  0  0  0  0  0
  129.5549  130.3093  121.5463 C   0  0  0  0  0  0  0  0  0  0  0  0
  128.3823  130.8059  121.7852 C   0  0  0  0  0  0  0  0  0  0  0  0
  129.7316  129.8299  120.1611 C   0  0  0  0  0  0  0  0  0  0  0  0
  127.3070  130.8797  120.8513 C   0  0  0  0  0  0  0  0  0  0  0  0
  127.6917  130.5746  119.5882 C   0  0  0  0  0  0  0  0  0  0  0  0
  131.5961  131.3543  125.8770 C   0  0  0  0  0  0  0  0  0  0  0  0
  132.6544  130.8079  123.6941 N   0  0  0  0  0  0  0  0  0  0  0  0
  126.7162  130.4833  118.4857 C   0  0  0  0  0  0  0  0  0  0  0  0
  129.0631  130.3469  119.2120 C   0  0  0  0  0  0  0  0  0  0  0  0
  132.0814  130.1855  122.7066 C   0  0  0  0  0  0  0  0  0  0  0  0
  126.7573  131.2313  117.4760 N   0  0  0  0  0  0  0  0  0  0  0  0
  125.9115  129.4673  118.3194 N   0  0  0  0  0  0  0  0  0  0  0  0
  1  2  1  0
  2  3  2  0
  2  4  1  0
  4  5  1  0
  5  6  2  0
  5  7  1  0
  6  8  1  0
  8  9  2  0
  3 10  1  0
  3 11  1  0
  9 12  1  0
  7 13  1  0
  9 13  1  0
  4 14  1  0
 11 14  2  0
 12 15  2  0
 12 16  1  0
M  END
$$$$
