
     RDKit          3D

 19 19  0  0  0  0  0  0  0  0999 V2000
  135.3766  127.1443  119.7662 N   0  0  0  0  0  0  0  0  0  0  0  0
  135.0075  128.3401  119.2888 C   0  0  0  0  0  0  0  0  0  0  0  0
  133.9915  129.0640  119.8779 C   0  0  0  0  0  0  0  0  0  0  0  0
  133.0852  128.5698  120.8558 C   0  0  0  0  0  0  0  0  0  0  0  0
  132.0339  129.4548  121.0709 C   0  0  0  0  0  0  0  0  0  0  0  0
  135.7624  128.9445  118.3833 O   0  0  0  0  0  0  0  0  0  0  0  0
  133.7285  130.2950  119.3749 C   0  0  0  0  0  0  0  0  0  0  0  0
  132.6005  131.0240  119.7737 C   0  0  0  0  0  0  0  0  0  0  0  0
  132.3066  132.3168  119.1217 C   0  0  0  0  0  0  0  0  0  0  0  0
  131.7753  130.5096  120.5640 C   0  0  0  0  0  0  0  0  0  0  0  0
  133.2274  133.1690  118.5964 C   0  0  0  0  0  0  0  0  0  0  0  0
  137.0188  128.8231  118.2383 C   0  0  0  0  0  0  0  0  0  0  0  0
  134.5986  132.6831  118.5837 C   0  0  0  0  0  0  0  0  0  0  0  0
  137.6945  129.9253  118.3136 O   0  0  0  0  0  0  0  0  0  0  0  0
  135.6455  133.3079  117.8592 C   0  0  0  0  0  0  0  0  0  0  0  0
  130.6100  130.9892  120.7512 O   0  0  0  0  0  0  0  0  0  0  0  0
  137.3180  127.7194  117.4325 O   0  0  0  0  0  0  0  0  0  0  0  0
  138.5420  130.3383  119.0844 C   0  0  0  0  0  0  0  0  0  0  0  0
  135.4536  134.4365  117.1279 C   0  0  0  0  0  0  0  0  0  0  0  0
  1  2  1  0
  2  3  2  3
  3  4  1  0
  4  5  2  0
  2  6  1  0
  3  7  1  0
  7  8  2  0
  8  9  1  0
  5 10  1  0
  8 10  1  0
  9 11  2  3
  6 12  1  0
 11 13  1  0
 12 14  1  0
 13 15  1  0
 10 16  2  0
 12 17  2  0
 14 18  1  0
 15 19  2  0
M  END
$$$$
