
     RDKit          3D

 20 21  0  0  0  0  0  0  0  0999 V2000
  135.3766  127.1443  119.7662 O   0  0  0  0  0  0  0  0  0  0  0  0
  135.0659  128.4012  119.6443 C   0  0  0  0  0  0  0  0  0  0  0  0
  135.9185  129.1001  119.0009 N   0  0  0  0  0  0  0  0  0  0  0  0
  133.8625  128.8834  120.2407 C   0  0  0  0  0  0  0  0  0  0  0  0
  133.6947  130.2162  119.9139 N   0  0  0  0  0  0  0  0  0  0  0  0
  132.3679  130.7090  119.7857 C   0  0  0  0  0  0  0  0  0  0  0  0
  137.0929  128.6273  118.5658 C   0  0  0  0  0  0  0  0  0  0  0  0
  132.1422  132.0749  119.6299 C   0  0  0  0  0  0  0  0  0  0  0  0
  131.4259  129.7740  119.8842 C   0  0  0  0  0  0  0  0  0  0  0  0
  130.0225  130.0579  119.8984 C   0  0  0  0  0  0  0  0  0  0  0  0
  129.6564  131.3662  120.0495 C   0  0  0  0  0  0  0  0  0  0  0  0
  130.4972  132.4724  120.0860 C   0  0  0  0  0  0  0  0  0  0  0  0
  137.6847  129.1996  117.4562 C   0  0  0  0  0  0  0  0  0  0  0  0
  128.1568  131.4984  120.3627 C   0  0  0  0  0  0  0  0  0  0  0  0
  137.3035  130.5353  117.3277 C   0  0  0  0  0  0  0  0  0  0  0  0
  138.0833  131.4521  117.0273 O   0  0  0  0  0  0  0  0  0  0  0  0
  127.3168  132.1470  119.8993 N   0  0  0  0  0  0  0  0  0  0  0  0
  136.0004  130.9434  117.4447 N   0  0  0  0  0  0  0  0  0  0  0  0
  135.1582  130.1524  118.2007 C   0  0  0  0  0  0  0  0  0  0  0  0
  127.7445  130.5678  121.3361 C   0  0  0  0  0  0  0  0  0  0  0  0
  1  2  2  0
  2  3  1  0
  2  4  1  0
  4  5  1  0
  5  6  1  0
  3  7  1  0
  6  8  1  0
  6  9  2  0
  9 10  1  0
 10 11  2  0
  8 12  2  0
 11 12  1  0
  7 13  1  0
 11 14  1  0
 13 15  1  0
 15 16  2  0
 14 17  2  0
 15 18  1  0
  3 19  1  0
 18 19  1  0
 14 20  1  0
M  END
$$$$
