
     RDKit          3D

 22 23  0  0  0  0  0  0  0  0999 V2000
  134.0723  128.4509  118.1403 O   0  0  0  0  0  0  0  0  0  0  0  0
  134.3301  129.1170  118.9726 C   0  0  0  0  0  0  0  0  0  0  0  0
  135.6083  129.4776  119.3114 N   0  0  0  0  0  0  0  0  0  0  0  0
  133.2602  129.8226  119.6855 C   0  0  0  0  0  0  0  0  0  0  0  0
  131.8877  129.6490  119.3432 C   0  0  0  0  0  0  0  0  0  0  0  0
  135.8988  130.3282  120.4281 C   0  0  0  0  0  0  0  0  0  0  0  0
  136.4810  128.8471  118.3318 C   0  0  0  0  0  0  0  0  0  0  0  0
  130.7607  130.0683  120.0947 C   0  0  0  0  0  0  0  0  0  0  0  0
  130.8275  130.3674  121.3767 C   0  0  0  0  0  0  0  0  0  0  0  0
  133.4405  130.4550  120.7551 C   0  0  0  0  0  0  0  0  0  0  0  0
  129.6526  130.5447  122.2086 C   0  0  0  0  0  0  0  0  0  0  0  0
  129.7807  131.1163  123.4485 C   0  0  0  0  0  0  0  0  0  0  0  0
  137.6423  129.3173  118.0934 C   0  0  0  0  0  0  0  0  0  0  0  0
  137.7603  130.6494  118.6763 C   0  0  0  0  0  0  0  0  0  0  0  0
  128.9606  131.9152  124.0620 N   0  0  0  0  0  0  0  0  0  0  0  0
  130.8681  130.9052  124.3663 C   0  0  0  0  0  0  0  0  0  0  0  0
  138.4463  131.6375  118.1278 O   0  0  0  0  0  0  0  0  0  0  0  0
  132.0415  130.5745  122.0124 C   0  0  0  0  0  0  0  0  0  0  0  0
  136.9936  130.9288  119.7355 N   0  0  0  0  0  0  0  0  0  0  0  0
  136.2970  127.5732  117.6405 O   0  0  0  0  0  0  0  0  0  0  0  0
  131.4129  131.9706  125.0325 C   0  0  0  0  0  0  0  0  0  0  0  0
  132.6245  131.7686  125.7437 C   0  0  0  0  0  0  0  0  0  0  0  0
  1  2  2  0
  2  3  1  0
  2  4  1  0
  4  5  2  0
  3  6  1  0
  3  7  1  0
  5  8  1  0
  8  9  2  0
  4 10  1  0
  9 11  1  0
 11 12  1  0
  7 13  1  0
 13 14  1  0
 12 15  2  0
 12 16  1  0
 14 17  2  0
  9 18  1  0
 10 18  1  0
  6 19  2  0
 14 19  1  0
  7 20  2  0
 16 21  2  3
 21 22  1  0
M  END
$$$$
