
     RDKit          3D

 22 23  0  0  0  0  0  0  0  0999 V2000
  131.9586  130.8656  121.2311 C   0  0  0  0  0  0  0  0  0  0  0  0
  131.0557  130.5577  120.1828 C   0  0  0  0  0  0  0  0  0  0  0  0
  129.9777  130.2649  120.1073 C   0  0  0  0  0  0  0  0  0  0  0  0
  133.2666  130.8760  121.1185 C   0  0  0  0  0  0  0  0  0  0  0  0
  131.1775  130.9903  122.1493 C   0  0  0  0  0  0  0  0  0  0  0  0
  131.4791  131.4135  123.3753 C   0  0  0  0  0  0  0  0  0  0  0  0
  132.8547  131.6923  123.7452 C   0  0  0  0  0  0  0  0  0  0  0  0
  130.4337  131.5551  124.2443 C   0  0  0  0  0  0  0  0  0  0  0  0
  130.3679  131.7871  125.3869 O   0  0  0  0  0  0  0  0  0  0  0  0
  129.2490  131.2395  123.5864 N   0  0  0  0  0  0  0  0  0  0  0  0
  129.3450  131.0630  122.2159 C   0  0  0  0  0  0  0  0  0  0  0  0
  133.8239  130.3928  120.2902 C   0  0  0  0  0  0  0  0  0  0  0  0
  135.1406  130.2050  120.0537 C   0  0  0  0  0  0  0  0  0  0  0  0
  136.0731  130.1983  121.0028 C   0  0  0  0  0  0  0  0  0  0  0  0
  129.0732  129.8546  119.0123 C   0  0  0  0  0  0  0  0  0  0  0  0
  127.8114  129.4453  119.3213 C   0  0  0  0  0  0  0  0  0  0  0  0
  126.7112  129.8553  118.5025 C   0  0  0  0  0  0  0  0  0  0  0  0
  135.4473  129.6391  118.8647 C   0  0  0  0  0  0  0  0  0  0  0  0
  136.6864  129.3301  118.5569 C   0  0  0  0  0  0  0  0  0  0  0  0
  137.6490  129.5632  119.5840 C   0  0  0  0  0  0  0  0  0  0  0  0
  125.5275  129.3448  118.4370 C   0  0  0  0  0  0  0  0  0  0  0  0
  137.2533  130.0457  120.8749 C   0  0  0  0  0  0  0  0  0  0  0  0
  1  2  1  0
  2  3  2  3
  1  4  1  0
  1  5  2  3
  5  6  1  0
  6  7  2  0
  6  8  1  0
  8  9  2  0
  8 10  1  0
  5 11  1  0
 10 11  2  0
  4 12  2  3
 12 13  1  0
 13 14  2  0
  3 15  1  0
 15 16  1  0
 16 17  2  3
 13 18  1  0
 18 19  2  0
 19 20  1  0
 17 21  1  0
 14 22  1  0
 20 22  2  0
M  END
$$$$
