
     RDKit          3D

 22 22  0  0  0  0  0  0  0  0999 V2000
  135.2115  128.1261  120.2523 C   0  0  0  0  0  0  0  0  0  0  0  0
  134.1888  129.0038  120.0608 C   0  0  0  0  0  0  0  0  0  0  0  0
  134.1631  130.1250  120.4182 C   0  0  0  0  0  0  0  0  0  0  0  0
  133.1250  131.0631  120.1740 C   0  0  0  0  0  0  0  0  0  0  0  0
  132.9048  132.3021  120.5320 C   0  0  0  0  0  0  0  0  0  0  0  0
  131.9195  130.8133  119.2785 C   0  0  0  0  0  0  0  0  0  0  0  0
  131.6336  132.9750  120.1385 C   0  0  0  0  0  0  0  0  0  0  0  0
  130.6576  131.2108  119.5652 C   0  0  0  0  0  0  0  0  0  0  0  0
  131.2386  134.2396  120.2956 C   0  0  0  0  0  0  0  0  0  0  0  0
  129.4802  130.5897  119.2287 C   0  0  0  0  0  0  0  0  0  0  0  0
  129.4475  129.2479  119.0278 C   0  0  0  0  0  0  0  0  0  0  0  0
  128.4546  131.2060  119.6660 N   0  0  0  0  0  0  0  0  0  0  0  0
  127.2189  130.5811  119.2440 C   0  0  0  0  0  0  0  0  0  0  0  0
  127.4457  129.3551  118.5859 C   0  0  0  0  0  0  0  0  0  0  0  0
  126.3355  131.5646  119.5755 C   0  0  0  0  0  0  0  0  0  0  0  0
  136.3522  128.6838  120.8975 C   0  0  0  0  0  0  0  0  0  0  0  0
  136.2712  129.9783  121.4190 C   0  0  0  0  0  0  0  0  0  0  0  0
  125.0060  131.2484  119.0537 C   0  0  0  0  0  0  0  0  0  0  0  0
  123.9987  132.1668  119.0385 C   0  0  0  0  0  0  0  0  0  0  0  0
  126.2406  128.6608  118.2256 C   0  0  0  0  0  0  0  0  0  0  0  0
  135.0487  130.6192  121.2880 C   0  0  0  0  0  0  0  0  0  0  0  0
  126.2200  127.2533  118.0247 C   0  0  0  0  0  0  0  0  0  0  0  0
  1  2  1  0
  2  3  2  0
  3  4  1  0
  4  5  1  0
  4  6  2  3
  5  7  2  3
  6  8  1  0
  7  9  1  0
  8 10  1  0
 10 11  2  0
 10 12  1  0
 12 13  1  0
 13 14  1  0
 13 15  2  3
  1 16  2  0
 16 17  1  0
 15 18  1  0
 18 19  1  0
 14 20  1  0
  3 21  1  0
 17 21  2  0
 20 22  2  0
M  END
$$$$
