
     RDKit          3D

 11 11  0  0  0  0  0  0  0  0999 V2000
  129.8891  131.5013  124.5631 C   0  0  0  0  0  0  0  0  0  0  0  0
  130.2945  130.3953  124.3243 C   0  0  0  0  0  0  0  0  0  0  0  0
  130.2520  132.6033  123.6381 C   0  0  0  0  0  0  0  0  0  0  0  0
  131.0844  130.0240  123.2164 N   0  0  0  0  0  0  0  0  0  0  0  0
  131.4899  131.0350  122.4767 C   0  0  0  0  0  0  0  0  0  0  0  0
  132.2327  130.8730  121.3097 N   0  0  0  0  0  0  0  0  0  0  0  0
  132.6333  129.7661  120.7883 C   0  0  0  0  0  0  0  0  0  0  0  0
  132.9670  129.6819  119.3815 C   0  0  0  0  0  0  0  0  0  0  0  0
  131.3303  132.4541  122.5101 C   0  0  0  0  0  0  0  0  0  0  0  0
  132.4357  130.6848  118.6454 O   0  0  0  0  0  0  0  0  0  0  0  0
  133.5776  128.5976  118.8081 O   0  0  0  0  0  0  0  0  0  0  0  0
  1  2  2  0
  1  3  1  0
  2  4  1  0
  4  5  2  0
  5  6  1  0
  6  7  1  0
  7  8  1  0
  3  9  2  0
  5  9  1  0
  8 10  1  0
  8 11  2  0
M  END
$$$$
