
     RDKit          3D

 11 12  0  0  0  0  0  0  0  0999 V2000
  129.1801  132.0520  122.1734 C   0  0  0  0  0  0  0  0  0  0  0  0
  130.4177  132.3221  122.3303 C   0  0  0  0  0  0  0  0  0  0  0  0
  130.9008  133.2359  123.3383 C   0  0  0  0  0  0  0  0  0  0  0  0
  131.4291  131.8378  121.4974 C   0  0  0  0  0  0  0  0  0  0  0  0
  132.3638  133.2938  123.4674 C   0  0  0  0  0  0  0  0  0  0  0  0
  128.6940  130.9912  121.2237 C   0  0  0  0  0  0  0  0  0  0  0  0
  132.7085  131.8551  121.8774 C   0  0  0  0  0  0  0  0  0  0  0  0
  131.0558  131.2718  120.2731 C   0  0  0  0  0  0  0  0  0  0  0  0
  129.6710  130.3885  120.5089 C   0  0  0  0  0  0  0  0  0  0  0  0
  129.6452  129.5002  119.7094 O   0  0  0  0  0  0  0  0  0  0  0  0
  133.2446  132.5952  122.7114 N   0  0  0  0  0  0  0  0  0  0  0  0
  1  2  2  0
  2  3  1  0
  2  4  1  0
  3  5  2  0
  1  6  1  0
  4  7  2  0
  4  8  1  0
  6  9  2  0
  8  9  1  0
  9 10  1  0
  5 11  1  0
  7 11  1  0
M  END
$$$$
