
     RDKit          3D

 21 23  0  0  0  0  0  0  0  0999 V2000
  129.5033  130.0631  122.3637 C   0  0  0  0  0  0  0  0  0  0  0  0
  130.4818  130.6409  121.7849 C   0  0  0  0  0  0  0  0  0  0  0  0
  131.4657  130.0196  121.0409 C   0  0  0  0  0  0  0  0  0  0  0  0
  130.7560  131.9277  122.0848 C   0  0  0  0  0  0  0  0  0  0  0  0
  132.7165  129.5164  121.4272 C   0  0  0  0  0  0  0  0  0  0  0  0
  128.6316  130.6300  123.0265 N   0  0  0  0  0  0  0  0  0  0  0  0
  133.7803  129.1042  120.7206 C   0  0  0  0  0  0  0  0  0  0  0  0
  131.5769  132.8290  121.3895 C   0  0  0  0  0  0  0  0  0  0  0  0
  134.2269  129.7496  119.6644 C   0  0  0  0  0  0  0  0  0  0  0  0
  133.7275  130.9670  119.3511 C   0  0  0  0  0  0  0  0  0  0  0  0
  130.3621  132.5664  123.1502 C   0  0  0  0  0  0  0  0  0  0  0  0
  129.5727  132.1321  124.1609 N   0  0  0  0  0  0  0  0  0  0  0  0
  135.3284  129.1656  119.0818 C   0  0  0  0  0  0  0  0  0  0  0  0
  129.3304  130.8236  124.0338 C   0  0  0  0  0  0  0  0  0  0  0  0
  135.9092  129.8220  118.0265 C   0  0  0  0  0  0  0  0  0  0  0  0
  132.7781  131.6877  119.8610 C   0  0  0  0  0  0  0  0  0  0  0  0
  134.3634  131.5748  118.2853 C   0  0  0  0  0  0  0  0  0  0  0  0
  135.2818  130.8938  117.4056 C   0  0  0  0  0  0  0  0  0  0  0  0
  131.9109  134.0649  122.0668 N   0  0  0  0  0  0  0  0  0  0  0  0
  129.8940  130.0488  125.0078 N   0  0  0  0  0  0  0  0  0  0  0  0
  132.0067  132.5896  120.1973 N   0  0  0  0  0  0  0  0  0  0  0  0
  1  2  1  0
  2  3  2  0
  2  4  1  0
  3  5  1  0
  1  6  2  0
  5  7  2  0
  4  8  1  0
  7  9  1  0
  9 10  2  0
  4 11  2  0
 11 12  1  0
  9 13  1  0
  6 14  1  0
 12 14  2  0
 13 15  2  0
 10 16  1  0
 10 17  1  0
 15 18  1  0
 17 18  2  0
  8 19  1  0
 14 20  1  0
  8 21  1  0
 16 21  2  0
M  END
$$$$
