
     RDKit          3D

 25 28  0  0  0  0  0  0  0  0999 V2000
  129.5033  130.0631  122.3637 C   0  0  0  0  0  0  0  0  0  0  0  0
  130.4818  130.6409  121.7849 C   0  0  0  0  0  0  0  0  0  0  0  0
  131.4657  130.0196  121.0409 C   0  0  0  0  0  0  0  0  0  0  0  0
  130.6676  131.9777  122.0469 C   0  0  0  0  0  0  0  0  0  0  0  0
  132.7176  129.5219  121.4432 C   0  0  0  0  0  0  0  0  0  0  0  0
  133.7278  128.9174  120.8356 C   0  0  0  0  0  0  0  0  0  0  0  0
  134.4301  127.9359  121.0484 N   0  0  0  0  0  0  0  0  0  0  0  0
  134.0713  129.8776  120.0062 C   0  0  0  0  0  0  0  0  0  0  0  0
  135.3547  127.7339  120.0879 C   0  0  0  0  0  0  0  0  0  0  0  0
  133.7727  131.1394  120.0762 C   0  0  0  0  0  0  0  0  0  0  0  0
  135.6673  128.7428  119.2639 C   0  0  0  0  0  0  0  0  0  0  0  0
  131.9436  132.5872  121.9531 C   0  0  0  0  0  0  0  0  0  0  0  0
  136.7647  128.5766  118.5687 C   0  0  0  0  0  0  0  0  0  0  0  0
  129.7774  132.6186  122.3602 N   0  0  0  0  0  0  0  0  0  0  0  0
  135.0088  129.8972  119.0764 C   0  0  0  0  0  0  0  0  0  0  0  0
  128.5128  130.7579  123.0976 N   0  0  0  0  0  0  0  0  0  0  0  0
  136.7690  129.1336  117.2968 C   0  0  0  0  0  0  0  0  0  0  0  0
  135.6078  129.7118  116.7523 C   0  0  0  0  0  0  0  0  0  0  0  0
  133.7778  131.9289  119.0057 N   0  0  0  0  0  0  0  0  0  0  0  0
  135.3264  130.9093  118.1574 C   0  0  0  0  0  0  0  0  0  0  0  0
  133.2677  133.1605  118.8338 C   0  0  0  0  0  0  0  0  0  0  0  0
  132.6806  133.8537  119.8039 N   0  0  0  0  0  0  0  0  0  0  0  0
  132.2971  133.5098  120.9096 C   0  0  0  0  0  0  0  0  0  0  0  0
  133.5416  133.6417  117.5860 N   0  0  0  0  0  0  0  0  0  0  0  0
  128.7125  132.2115  123.0458 N   0  0  0  0  0  0  0  0  0  0  0  0
  1  2  1  0
  2  3  2  0
  2  4  1  0
  3  5  1  0
  5  6  1  0
  6  7  2  0
  6  8  1  0
  7  9  1  0
  8 10  2  0
  9 11  2  0
  4 12  1  0
 11 13  1  0
  4 14  2  0
  8 15  1  0
 11 15  1  0
  1 16  2  0
 13 17  2  0
 17 18  1  0
 10 19  1  0
 15 20  1  0
 18 20  2  0
 19 21  1  0
 21 22  2  0
 12 23  1  0
 22 23  1  0
 21 24  1  0
 14 25  1  0
 16 25  1  0
M  END
$$$$
