
     RDKit          3D

 11 12  0  0  0  0  0  0  0  0999 V2000
  139.3429  149.9930  140.5895 C   0  0  0  0  0  0  0  0  0  0  0  0
  138.9526  149.9228  139.3665 C   0  0  0  0  0  0  0  0  0  0  0  0
  138.6128  150.1151  141.6415 C   0  0  0  0  0  0  0  0  0  0  0  0
  137.1849  149.8640  141.8304 C   0  0  0  0  0  0  0  0  0  0  0  0
  136.5144  149.7572  140.5779 C   0  0  0  0  0  0  0  0  0  0  0  0
  139.1166  150.5253  143.0849 C   0  0  0  0  0  0  0  0  0  0  0  0
  138.2341  151.1490  143.8701 C   0  0  0  0  0  0  0  0  0  0  0  0
  136.7763  150.4474  143.0471 C   0  0  0  0  0  0  0  0  0  0  0  0
  135.1534  149.5205  140.5422 C   0  0  0  0  0  0  0  0  0  0  0  0
  139.6665  149.8826  138.1834 C   0  0  0  0  0  0  0  0  0  0  0  0
  137.4290  149.6453  139.2873 C   0  0  0  0  0  0  0  0  0  0  0  0
  1  2  2  0
  1  3  1  0
  3  4  1  0
  4  5  2  0
  3  6  1  0
  6  7  2  0
  4  8  1  0
  7  8  1  0
  5  9  1  0
  2 10  1  0
  2 11  1  0
  5 11  1  0
M  END
$$$$
