
     RDKit          3D

 11 11  0  0  0  0  0  0  0  0999 V2000
  140.3024  150.2148  139.4796 Cl  0  0  0  0  0  0  0  0  0  0  0  0
  138.6763  150.1843  140.5310 C   0  0  0  0  0  0  0  0  0  0  0  0
  137.6367  149.3820  140.0914 C   0  0  0  0  0  0  0  0  0  0  0  0
  138.7469  150.9460  141.6721 C   0  0  0  0  0  0  0  0  0  0  0  0
  136.5600  149.6018  140.7937 C   0  0  0  0  0  0  0  0  0  0  0  0
  137.6794  151.0376  142.4893 C   0  0  0  0  0  0  0  0  0  0  0  0
  136.5064  150.3382  142.0055 C   0  0  0  0  0  0  0  0  0  0  0  0
  137.5898  151.8098  143.7405 C   0  0  0  0  0  0  0  0  0  0  0  0
  136.5556  151.5654  144.6232 C   0  0  0  0  0  0  0  0  0  0  0  0
  136.1674  152.6850  145.5148 C   0  0  0  0  0  0  0  0  0  0  0  0
  136.7774  153.7799  145.4347 C   0  0  0  0  0  0  0  0  0  0  0  0
  1  2  1  0
  2  3  2  0
  2  4  1  0
  3  5  1  0
  4  6  2  0
  5  7  2  0
  6  7  1  0
  6  8  1  0
  8  9  1  0
  9 10  1  0
 10 11  2  0
M  END
$$$$
