
     RDKit          3D

 12 13  0  0  0  0  0  0  0  0999 V2000
  139.3946  150.7519  142.0139 C   0  0  0  0  0  0  0  0  0  0  0  0
  139.0647  150.4900  140.7537 C   0  0  0  0  0  0  0  0  0  0  0  0
  138.4477  150.6373  143.0427 C   0  0  0  0  0  0  0  0  0  0  0  0
  137.8331  149.9847  140.4384 C   0  0  0  0  0  0  0  0  0  0  0  0
  137.5386  149.5898  139.0385 C   0  0  0  0  0  0  0  0  0  0  0  0
  136.8651  149.8612  141.4872 C   0  0  0  0  0  0  0  0  0  0  0  0
  138.8185  151.0217  144.4300 C   0  0  0  0  0  0  0  0  0  0  0  0
  137.6912  151.6712  145.1628 C   0  0  0  0  0  0  0  0  0  0  0  0
  136.4476  151.5965  144.6216 C   0  0  0  0  0  0  0  0  0  0  0  0
  136.0924  151.2217  143.6564 C   0  0  0  0  0  0  0  0  0  0  0  0
  137.0689  150.5532  142.6826 C   0  0  0  0  0  0  0  0  0  0  0  0
  135.1546  152.3985  145.7721 Cl  0  0  0  0  0  0  0  0  0  0  0  0
  1  2  2  0
  1  3  1  0
  2  4  1  0
  4  5  1  0
  4  6  2  0
  3  7  1  0
  7  8  2  0
  8  9  1  0
  9 10  2  0
  3 11  2  0
  6 11  1  0
 10 11  1  0
  9 12  1  0
M  END
$$$$
