
     RDKit          3D

 12 13  0  0  0  0  0  0  0  0999 V2000
  139.2620  151.0920  142.4042 C   0  0  0  0  0  0  0  0  0  0  0  0
  138.8619  152.1309  142.9034 C   0  0  0  0  0  0  0  0  0  0  0  0
  137.7834  151.8925  143.8932 C   0  0  0  0  0  0  0  0  0  0  0  0
  137.3598  150.5409  144.0625 C   0  0  0  0  0  0  0  0  0  0  0  0
  136.3243  150.4647  145.1225 C   0  0  0  0  0  0  0  0  0  0  0  0
  139.2661  149.7548  142.8054 C   0  0  0  0  0  0  0  0  0  0  0  0
  137.9618  149.6107  143.5791 C   0  0  0  0  0  0  0  0  0  0  0  0
  140.3557  151.2785  141.2946 C   0  0  0  0  0  0  0  0  0  0  0  0
  135.7270  151.6123  145.4188 C   0  0  0  0  0  0  0  0  0  0  0  0
  139.9803  150.5977  140.0094 C   0  0  0  0  0  0  0  0  0  0  0  0
  136.9314  152.8399  144.6573 C   0  0  0  0  0  0  0  0  0  0  0  0
  136.0708  152.7215  145.4802 C   0  0  0  0  0  0  0  0  0  0  0  0
  1  2  1  0
  2  3  2  0
  3  4  1  0
  4  5  2  0
  1  6  1  0
  4  7  1  0
  6  7  2  0
  1  8  1  0
  5  9  1  0
  8 10  1  0
  3 11  1  0
  9 12  2  0
 11 12  2  0
M  END
$$$$
