
     RDKit          3D

 12 13  0  0  0  0  0  0  0  0999 V2000
  140.3024  150.2148  139.4796 Cl  0  0  0  0  0  0  0  0  0  0  0  0
  138.6763  150.1843  140.5310 C   0  0  0  0  0  0  0  0  0  0  0  0
  137.6367  149.3820  140.0914 C   0  0  0  0  0  0  0  0  0  0  0  0
  139.0296  150.8810  141.6190 C   0  0  0  0  0  0  0  0  0  0  0  0
  136.6556  149.6404  140.8181 C   0  0  0  0  0  0  0  0  0  0  0  0
  136.6486  150.4486  141.8740 C   0  0  0  0  0  0  0  0  0  0  0  0
  135.4283  150.7331  142.7845 C   0  0  0  0  0  0  0  0  0  0  0  0
  137.8050  151.0306  142.4471 C   0  0  0  0  0  0  0  0  0  0  0  0
  135.6546  150.8747  144.1281 C   0  0  0  0  0  0  0  0  0  0  0  0
  136.5585  151.5502  144.7332 C   0  0  0  0  0  0  0  0  0  0  0  0
  138.0414  151.7381  143.7591 C   0  0  0  0  0  0  0  0  0  0  0  0
  136.9124  152.0454  145.9375 O   0  0  0  0  0  0  0  0  0  0  0  0
  1  2  1  0
  2  3  2  0
  2  4  1  0
  3  5  1  0
  5  6  2  0
  6  7  1  0
  4  8  2  0
  6  8  1  0
  7  9  2  0
  9 10  1  0
  8 11  1  0
 10 11  1  0
 10 12  1  0
M  END
$$$$
