
     RDKit          3D

 12 13  0  0  0  0  0  0  0  0999 V2000
  138.7250  151.5761  143.3186 C   0  0  0  0  0  0  0  0  0  0  0  0
  137.9190  152.3260  143.7534 C   0  0  0  0  0  0  0  0  0  0  0  0
  136.7518  151.8065  144.4377 C   0  0  0  0  0  0  0  0  0  0  0  0
  136.7830  150.4602  144.6806 C   0  0  0  0  0  0  0  0  0  0  0  0
  135.7179  152.5049  144.9771 C   0  0  0  0  0  0  0  0  0  0  0  0
  138.4939  150.1675  143.2310 C   0  0  0  0  0  0  0  0  0  0  0  0
  135.6409  153.7419  145.2249 C   0  0  0  0  0  0  0  0  0  0  0  0
  135.8837  149.9059  145.6561 C   0  0  0  0  0  0  0  0  0  0  0  0
  134.5888  151.7027  145.4164 C   0  0  0  0  0  0  0  0  0  0  0  0
  137.6709  149.6353  144.0919 C   0  0  0  0  0  0  0  0  0  0  0  0
  136.3275  148.8689  146.4411 O   0  0  0  0  0  0  0  0  0  0  0  0
  134.6532  150.4477  145.9360 C   0  0  0  0  0  0  0  0  0  0  0  0
  1  2  1  0
  2  3  2  0
  3  4  1  0
  3  5  1  0
  1  6  2  0
  5  7  1  0
  4  8  1  0
  5  9  2  0
  4 10  2  0
  6 10  1  0
  8 11  1  0
  8 12  2  0
  9 12  1  0
M  END
$$$$
