
     RDKit          3D

  9  9  0  0  0  0  0  0  0  0999 V2000
  140.3024  150.2148  139.4796 Cl  0  0  0  0  0  0  0  0  0  0  0  0
  138.6763  150.1843  140.5310 C   0  0  0  0  0  0  0  0  0  0  0  0
  137.6367  149.3820  140.0914 C   0  0  0  0  0  0  0  0  0  0  0  0
  138.7469  150.9460  141.6721 C   0  0  0  0  0  0  0  0  0  0  0  0
  137.7520  150.8717  142.6252 C   0  0  0  0  0  0  0  0  0  0  0  0
  136.6300  150.0366  142.2586 C   0  0  0  0  0  0  0  0  0  0  0  0
  137.5250  148.8222  138.8916 C   0  0  0  0  0  0  0  0  0  0  0  0
  138.0422  151.6459  143.9086 C   0  0  0  0  0  0  0  0  0  0  0  0
  136.4421  149.5518  141.0436 C   0  0  0  0  0  0  0  0  0  0  0  0
  1  2  1  0
  2  3  2  0
  2  4  1  0
  4  5  2  0
  5  6  1  0
  3  7  1  0
  5  8  1  0
  3  9  1  0
  6  9  2  0
M  END
$$$$
