
     RDKit          3D

 12 12  0  0  0  0  0  0  0  0999 V2000
  140.3024  150.2148  139.4796 Cl  0  0  0  0  0  0  0  0  0  0  0  0
  138.6763  150.1843  140.5310 C   0  0  0  0  0  0  0  0  0  0  0  0
  137.6367  149.3820  140.0914 C   0  0  0  0  0  0  0  0  0  0  0  0
  138.7469  150.9460  141.6721 C   0  0  0  0  0  0  0  0  0  0  0  0
  136.5600  149.6018  140.7937 C   0  0  0  0  0  0  0  0  0  0  0  0
  137.6794  151.0376  142.4893 C   0  0  0  0  0  0  0  0  0  0  0  0
  135.2447  149.0952  140.3661 C   0  0  0  0  0  0  0  0  0  0  0  0
  136.5242  150.3975  142.0138 C   0  0  0  0  0  0  0  0  0  0  0  0
  137.6911  151.8262  143.7286 C   0  0  0  0  0  0  0  0  0  0  0  0
  136.6547  151.6015  144.6490 C   0  0  0  0  0  0  0  0  0  0  0  0
  136.4460  150.5555  145.2274 C   0  0  0  0  0  0  0  0  0  0  0  0
  135.8416  152.7105  145.1297 C   0  0  0  0  0  0  0  0  0  0  0  0
  1  2  1  0
  2  3  2  0
  2  4  1  0
  3  5  1  0
  4  6  2  0
  5  7  1  0
  5  8  2  0
  6  8  1  0
  6  9  1  0
  9 10  1  0
 10 11  2  0
 10 12  1  0
M  END
$$$$
