
     RDKit          3D

 12 13  0  0  0  0  0  0  0  0999 V2000
  138.7091  151.1474  142.6274 C   0  0  0  0  0  0  0  0  0  0  0  0
  138.5250  151.9378  143.5111 C   0  0  0  0  0  0  0  0  0  0  0  0
  137.3808  151.6590  144.3960 C   0  0  0  0  0  0  0  0  0  0  0  0
  139.6671  150.9842  141.6902 C   0  0  0  0  0  0  0  0  0  0  0  0
  136.7223  150.4781  143.9637 C   0  0  0  0  0  0  0  0  0  0  0  0
  137.7855  150.1127  142.3490 C   0  0  0  0  0  0  0  0  0  0  0  0
  138.1041  149.3710  141.0881 C   0  0  0  0  0  0  0  0  0  0  0  0
  139.5481  150.3760  140.5135 C   0  0  0  0  0  0  0  0  0  0  0  0
  138.8051  149.5516  140.2255 C   0  0  0  0  0  0  0  0  0  0  0  0
  136.7904  149.7469  143.0468 C   0  0  0  0  0  0  0  0  0  0  0  0
  140.8196  150.7281  139.5500 C   0  0  0  0  0  0  0  0  0  0  0  0
  137.1994  152.5840  145.4831 O   0  0  0  0  0  0  0  0  0  0  0  0
  1  2  1  0
  2  3  2  0
  1  4  1  0
  3  5  1  0
  1  6  2  0
  6  7  1  0
  4  8  2  0
  7  9  2  0
  8  9  1  0
  5 10  2  0
  6 10  1  0
  8 11  1  0
  3 12  1  0
M  END
$$$$
