
     RDKit          3D

 12 13  0  0  0  0  0  0  0  0999 V2000
  138.7091  151.1474  142.6274 C   0  0  0  0  0  0  0  0  0  0  0  0
  138.5250  151.9378  143.5111 C   0  0  0  0  0  0  0  0  0  0  0  0
  137.3808  151.6590  144.3960 C   0  0  0  0  0  0  0  0  0  0  0  0
  139.6671  150.9842  141.6902 C   0  0  0  0  0  0  0  0  0  0  0  0
  136.7223  150.4781  143.9637 C   0  0  0  0  0  0  0  0  0  0  0  0
  137.6952  150.0834  142.3787 C   0  0  0  0  0  0  0  0  0  0  0  0
  138.0473  149.3792  141.0795 C   0  0  0  0  0  0  0  0  0  0  0  0
  139.2304  149.8975  140.4342 C   0  0  0  0  0  0  0  0  0  0  0  0
  135.5958  150.2798  145.1116 C   0  0  0  0  0  0  0  0  0  0  0  0
  139.9850  150.3759  139.6311 C   0  0  0  0  0  0  0  0  0  0  0  0
  136.7953  149.7871  142.9566 N   0  0  0  0  0  0  0  0  0  0  0  0
  141.1616  151.0141  139.6545 C   0  0  0  0  0  0  0  0  0  0  0  0
  1  2  1  0
  2  3  2  0
  1  4  1  0
  3  5  1  0
  1  6  2  0
  6  7  1  0
  4  8  1  0
  7  8  1  0
  5  9  1  0
  8 10  2  3
  5 11  2  0
  6 11  1  0
 10 12  1  0
M  END
$$$$
