
     RDKit          3D

  9  9  0  0  0  0  0  0  0  0999 V2000
  138.9700  151.3143  142.5679 C   0  0  0  0  0  0  0  0  0  0  0  0
  138.6023  152.0885  143.2650 C   0  0  0  0  0  0  0  0  0  0  0  0
  137.6696  151.8114  144.0578 C   0  0  0  0  0  0  0  0  0  0  0  0
  138.4237  149.9016  142.6323 C   0  0  0  0  0  0  0  0  0  0  0  0
  137.0742  152.8246  144.9926 C   0  0  0  0  0  0  0  0  0  0  0  0
  137.0068  150.5611  144.2187 C   0  0  0  0  0  0  0  0  0  0  0  0
  140.0505  151.4759  141.4478 C   0  0  0  0  0  0  0  0  0  0  0  0
  136.0508  150.2857  145.2562 C   0  0  0  0  0  0  0  0  0  0  0  0
  137.4417  149.5000  143.4769 C   0  0  0  0  0  0  0  0  0  0  0  0
  1  2  2  0
  2  3  1  0
  1  4  1  0
  3  5  1  0
  3  6  2  0
  1  7  1  0
  6  8  1  0
  4  9  2  0
  6  9  1  0
M  END
$$$$
