
     RDKit          3D

 13 14  0  0  0  0  0  0  0  0999 V2000
  139.3946  150.7519  142.0139 C   0  0  0  0  0  0  0  0  0  0  0  0
  139.0647  150.4900  140.7537 C   0  0  0  0  0  0  0  0  0  0  0  0
  138.4477  150.6373  143.0427 C   0  0  0  0  0  0  0  0  0  0  0  0
  137.8331  149.9847  140.4384 C   0  0  0  0  0  0  0  0  0  0  0  0
  136.8172  149.7858  141.4639 C   0  0  0  0  0  0  0  0  0  0  0  0
  138.7924  151.0563  144.4369 C   0  0  0  0  0  0  0  0  0  0  0  0
  137.7738  151.8330  144.9215 C   0  0  0  0  0  0  0  0  0  0  0  0
  136.5196  151.8512  144.4185 C   0  0  0  0  0  0  0  0  0  0  0  0
  135.4966  152.5698  145.2248 C   0  0  0  0  0  0  0  0  0  0  0  0
  136.2763  151.1209  143.2650 C   0  0  0  0  0  0  0  0  0  0  0  0
  140.0849  150.7272  139.7073 C   0  0  0  0  0  0  0  0  0  0  0  0
  137.0609  150.5443  142.6182 C   0  0  0  0  0  0  0  0  0  0  0  0
  134.6102  151.8890  146.0016 C   0  0  0  0  0  0  0  0  0  0  0  0
  1  2  2  0
  1  3  1  0
  2  4  1  0
  4  5  2  0
  3  6  1  0
  6  7  2  0
  7  8  1  0
  8  9  1  0
  8 10  2  0
  2 11  1  0
  3 12  2  0
  5 12  1  0
 10 12  1  0
  9 13  1  0
M  END
$$$$
