
     RDKit          3D

 13 14  0  0  0  0  0  0  0  0999 V2000
  139.3429  149.9930  140.5895 C   0  0  0  0  0  0  0  0  0  0  0  0
  138.9526  149.9228  139.3665 C   0  0  0  0  0  0  0  0  0  0  0  0
  138.6128  150.1151  141.6415 C   0  0  0  0  0  0  0  0  0  0  0  0
  137.1849  149.8640  141.8304 C   0  0  0  0  0  0  0  0  0  0  0  0
  136.5144  149.7572  140.5779 C   0  0  0  0  0  0  0  0  0  0  0  0
  139.1166  150.5253  143.0849 C   0  0  0  0  0  0  0  0  0  0  0  0
  138.2341  151.1490  143.8701 C   0  0  0  0  0  0  0  0  0  0  0  0
  136.9087  150.9585  143.7785 C   0  0  0  0  0  0  0  0  0  0  0  0
  136.2893  150.2993  142.7352 C   0  0  0  0  0  0  0  0  0  0  0  0
  139.7666  149.9662  138.2170 C   0  0  0  0  0  0  0  0  0  0  0  0
  136.0725  151.4772  144.8572 C   0  0  0  0  0  0  0  0  0  0  0  0
  135.4260  152.7139  144.7990 C   0  0  0  0  0  0  0  0  0  0  0  0
  137.4483  149.6818  139.3423 C   0  0  0  0  0  0  0  0  0  0  0  0
  1  2  2  0
  1  3  1  0
  3  4  1  0
  4  5  2  0
  3  6  1  0
  6  7  2  0
  7  8  1  0
  4  9  1  0
  8  9  1  0
  2 10  1  0
  8 11  1  0
 11 12  1  0
  2 13  1  0
  5 13  1  0
M  END
$$$$
