
     RDKit          3D

  9  8  0  0  0  0  0  0  0  0999 V2000
  138.9700  151.3143  142.5679 C   0  0  0  0  0  0  0  0  0  0  0  0
  138.6023  152.0885  143.2650 C   0  0  0  0  0  0  0  0  0  0  0  0
  139.7634  151.4680  141.3543 C   0  0  0  0  0  0  0  0  0  0  0  0
  137.7631  151.7028  144.3624 C   0  0  0  0  0  0  0  0  0  0  0  0
  136.8770  152.4872  145.1644 C   0  0  0  0  0  0  0  0  0  0  0  0
  137.0816  153.7997  145.1256 C   0  0  0  0  0  0  0  0  0  0  0  0
  139.6552  150.5024  140.1980 C   0  0  0  0  0  0  0  0  0  0  0  0
  136.0367  151.9419  145.6947 C   0  0  0  0  0  0  0  0  0  0  0  0
  134.7090  152.4422  145.8080 C   0  0  0  0  0  0  0  0  0  0  0  0
  1  2  1  0
  1  3  1  0
  2  4  2  3
  4  5  1  0
  5  6  1  0
  3  7  1  0
  5  8  2  3
  8  9  1  0
M  END
$$$$
