
     RDKit          3D

 13 14  0  0  0  0  0  0  0  0999 V2000
  139.3429  149.9930  140.5895 C   0  0  0  0  0  0  0  0  0  0  0  0
  138.9526  149.9228  139.3665 C   0  0  0  0  0  0  0  0  0  0  0  0
  138.6128  150.1151  141.6415 C   0  0  0  0  0  0  0  0  0  0  0  0
  137.1849  149.8640  141.8304 C   0  0  0  0  0  0  0  0  0  0  0  0
  136.5144  149.7572  140.5779 C   0  0  0  0  0  0  0  0  0  0  0  0
  139.1889  150.4046  143.0744 C   0  0  0  0  0  0  0  0  0  0  0  0
  138.2456  150.9517  144.0738 C   0  0  0  0  0  0  0  0  0  0  0  0
  136.7330  150.3979  143.0627 C   0  0  0  0  0  0  0  0  0  0  0  0
  139.6909  149.9363  138.1839 C   0  0  0  0  0  0  0  0  0  0  0  0
  137.1396  150.7734  144.1153 C   0  0  0  0  0  0  0  0  0  0  0  0
  136.3009  151.2990  145.2033 C   0  0  0  0  0  0  0  0  0  0  0  0
  136.5036  151.4058  146.4397 O   0  0  0  0  0  0  0  0  0  0  0  0
  137.2202  149.7228  139.3074 C   0  0  0  0  0  0  0  0  0  0  0  0
  1  2  2  0
  1  3  1  0
  3  4  1  0
  4  5  2  0
  3  6  1  0
  6  7  2  0
  4  8  1  0
  2  9  1  0
  7 10  1  0
  8 10  2  0
 10 11  1  0
 11 12  2  0
  2 13  1  0
  5 13  1  0
M  END
$$$$
