
     RDKit          3D

  9  9  0  0  0  0  0  0  0  0999 V2000
  138.7250  151.5761  143.3186 C   0  0  0  0  0  0  0  0  0  0  0  0
  137.9190  152.3260  143.7534 C   0  0  0  0  0  0  0  0  0  0  0  0
  136.7518  151.8065  144.4377 C   0  0  0  0  0  0  0  0  0  0  0  0
  138.5742  150.7615  142.3609 C   0  0  0  0  0  0  0  0  0  0  0  0
  136.5038  150.5082  144.1692 C   0  0  0  0  0  0  0  0  0  0  0  0
  135.8723  152.6495  145.3057 C   0  0  0  0  0  0  0  0  0  0  0  0
  137.4501  149.8077  142.6524 C   0  0  0  0  0  0  0  0  0  0  0  0
  136.6217  149.6680  143.4529 C   0  0  0  0  0  0  0  0  0  0  0  0
  139.3861  150.8268  141.1458 C   0  0  0  0  0  0  0  0  0  0  0  0
  1  2  1  0
  2  3  2  0
  1  4  2  0
  3  5  1  0
  3  6  1  0
  4  7  1  0
  5  8  1  0
  7  8  2  0
  4  9  1  0
M  END
$$$$
