
     RDKit          3D

 13 14  0  0  0  0  0  0  0  0999 V2000
  139.0001  149.7643  140.3654 C   0  0  0  0  0  0  0  0  0  0  0  0
  138.7141  149.5451  139.1252 C   0  0  0  0  0  0  0  0  0  0  0  0
  138.1592  150.0995  141.2821 C   0  0  0  0  0  0  0  0  0  0  0  0
  137.3238  149.5788  138.6759 C   0  0  0  0  0  0  0  0  0  0  0  0
  137.0151  149.1362  137.4394 O   0  0  0  0  0  0  0  0  0  0  0  0
  136.3858  149.5936  139.3472 C   0  0  0  0  0  0  0  0  0  0  0  0
  135.0528  149.6286  139.2752 C   0  0  0  0  0  0  0  0  0  0  0  0
  138.5598  150.4914  142.6508 C   0  0  0  0  0  0  0  0  0  0  0  0
  137.6889  150.9036  143.6523 C   0  0  0  0  0  0  0  0  0  0  0  0
  136.4231  150.8736  143.2321 C   0  0  0  0  0  0  0  0  0  0  0  0
  136.6234  150.2962  141.3245 C   0  0  0  0  0  0  0  0  0  0  0  0
  135.9369  150.5806  142.0846 C   0  0  0  0  0  0  0  0  0  0  0  0
  136.1589  149.8216  140.1633 C   0  0  0  0  0  0  0  0  0  0  0  0
  1  2  2  0
  1  3  1  0
  2  4  1  0
  4  5  1  0
  4  6  2  0
  6  7  1  0
  3  8  1  0
  8  9  2  0
  9 10  1  0
  3 11  2  0
 10 12  2  0
 11 12  1  0
  7 13  1  0
 11 13  1  0
M  END
$$$$
