
     RDKit          3D

 13 14  0  0  0  0  0  0  0  0999 V2000
  139.5546  150.5076  140.4455 C   0  0  0  0  0  0  0  0  0  0  0  0
  139.2164  150.0146  139.3742 C   0  0  0  0  0  0  0  0  0  0  0  0
  138.8577  150.3073  141.5866 C   0  0  0  0  0  0  0  0  0  0  0  0
  139.2276  150.3508  142.8915 C   0  0  0  0  0  0  0  0  0  0  0  0
  138.3509  151.0011  143.9757 C   0  0  0  0  0  0  0  0  0  0  0  0
  137.3998  151.4284  143.6194 C   0  0  0  0  0  0  0  0  0  0  0  0
  136.5337  152.2387  144.6008 C   0  0  0  0  0  0  0  0  0  0  0  0
  137.8483  149.5149  139.3370 C   0  0  0  0  0  0  0  0  0  0  0  0
  136.9622  151.2207  142.2472 C   0  0  0  0  0  0  0  0  0  0  0  0
  135.3288  151.7446  145.0390 C   0  0  0  0  0  0  0  0  0  0  0  0
  136.8277  153.2377  144.9813 O   0  0  0  0  0  0  0  0  0  0  0  0
  137.0914  149.8409  140.3844 C   0  0  0  0  0  0  0  0  0  0  0  0
  137.5464  150.4246  141.4307 C   0  0  0  0  0  0  0  0  0  0  0  0
  1  2  2  0
  1  3  1  0
  3  4  1  0
  4  5  2  0
  5  6  1  0
  6  7  1  0
  2  8  1  0
  6  9  2  0
  7 10  1  0
  7 11  2  0
  8 12  2  0
  3 13  2  0
  9 13  1  0
 12 13  1  0
M  END
$$$$
