
     RDKit          3D

 13 14  0  0  0  0  0  0  0  0999 V2000
  139.3429  149.9930  140.5895 C   0  0  0  0  0  0  0  0  0  0  0  0
  138.9526  149.9228  139.3665 C   0  0  0  0  0  0  0  0  0  0  0  0
  138.6128  150.1151  141.6415 C   0  0  0  0  0  0  0  0  0  0  0  0
  137.5731  149.8751  139.0603 C   0  0  0  0  0  0  0  0  0  0  0  0
  136.7804  149.7030  140.1442 C   0  0  0  0  0  0  0  0  0  0  0  0
  139.1254  150.3586  143.0279 C   0  0  0  0  0  0  0  0  0  0  0  0
  138.2371  150.8994  144.0334 C   0  0  0  0  0  0  0  0  0  0  0  0
  137.1231  151.2869  143.6980 C   0  0  0  0  0  0  0  0  0  0  0  0
  137.1855  150.0443  141.4783 C   0  0  0  0  0  0  0  0  0  0  0  0
  136.3032  150.6378  142.5455 C   0  0  0  0  0  0  0  0  0  0  0  0
  136.2433  151.9753  144.6149 C   0  0  0  0  0  0  0  0  0  0  0  0
  136.4447  153.2645  145.0186 C   0  0  0  0  0  0  0  0  0  0  0  0
  135.6181  151.2546  145.5275 C   0  0  0  0  0  0  0  0  0  0  0  0
  1  2  2  0
  1  3  1  0
  2  4  1  0
  4  5  2  0
  3  6  1  0
  6  7  2  0
  7  8  1  0
  3  9  2  0
  5  9  1  0
  8 10  1  0
  9 10  1  0
  8 11  1  0
 11 12  1  0
 11 13  2  0
M  END
$$$$
