
     RDKit          3D

 13 14  0  0  0  0  0  0  0  0999 V2000
  139.3946  150.7519  142.0139 C   0  0  0  0  0  0  0  0  0  0  0  0
  139.0647  150.4900  140.7537 C   0  0  0  0  0  0  0  0  0  0  0  0
  138.4477  150.6373  143.0427 C   0  0  0  0  0  0  0  0  0  0  0  0
  137.8331  149.9847  140.4384 C   0  0  0  0  0  0  0  0  0  0  0  0
  136.8990  149.7655  141.3322 C   0  0  0  0  0  0  0  0  0  0  0  0
  138.7710  151.0481  144.4226 C   0  0  0  0  0  0  0  0  0  0  0  0
  137.5960  151.6420  145.1154 C   0  0  0  0  0  0  0  0  0  0  0  0
  136.4933  151.6679  144.5430 C   0  0  0  0  0  0  0  0  0  0  0  0
  135.4715  149.5391  140.9774 C   0  0  0  0  0  0  0  0  0  0  0  0
  135.4095  152.3547  145.3416 C   0  0  0  0  0  0  0  0  0  0  0  0
  136.2969  151.0942  143.2749 C   0  0  0  0  0  0  0  0  0  0  0  0
  137.2471  150.3743  142.5419 C   0  0  0  0  0  0  0  0  0  0  0  0
  134.6801  151.6197  146.1872 C   0  0  0  0  0  0  0  0  0  0  0  0
  1  2  2  0
  1  3  1  0
  2  4  1  0
  4  5  2  0
  3  6  1  0
  6  7  2  0
  7  8  1  0
  5  9  1  0
  8 10  1  0
  8 11  2  0
  3 12  2  0
  5 12  1  0
 11 12  1  0
 10 13  1  0
M  END
$$$$
