
     RDKit          3D

  9  9  0  0  0  0  0  0  0  0999 V2000
  138.7091  151.1474  142.6274 C   0  0  0  0  0  0  0  0  0  0  0  0
  138.5250  151.9378  143.5111 C   0  0  0  0  0  0  0  0  0  0  0  0
  137.3909  151.8085  144.0743 C   0  0  0  0  0  0  0  0  0  0  0  0
  136.5966  150.6180  143.9743 C   0  0  0  0  0  0  0  0  0  0  0  0
  137.9826  149.9619  142.2566 C   0  0  0  0  0  0  0  0  0  0  0  0
  136.5070  152.7496  145.0872 C   0  0  0  0  0  0  0  0  0  0  0  0
  136.8340  153.9868  145.0824 C   0  0  0  0  0  0  0  0  0  0  0  0
  136.9263  149.7114  142.9935 C   0  0  0  0  0  0  0  0  0  0  0  0
  135.8369  152.2015  145.6827 O   0  0  0  0  0  0  0  0  0  0  0  0
  1  2  1  0
  2  3  2  0
  3  4  1  0
  1  5  2  0
  3  6  1  0
  6  7  1  0
  4  8  2  0
  5  8  1  0
  6  9  2  0
M  END
$$$$
