
     RDKit          3D

 14 15  0  0  0  0  0  0  0  0999 V2000
  139.3429  149.9930  140.5895 C   0  0  0  0  0  0  0  0  0  0  0  0
  138.9526  149.9228  139.3665 C   0  0  0  0  0  0  0  0  0  0  0  0
  138.6128  150.1151  141.6415 C   0  0  0  0  0  0  0  0  0  0  0  0
  137.1849  149.8640  141.8304 C   0  0  0  0  0  0  0  0  0  0  0  0
  136.5144  149.7572  140.5779 C   0  0  0  0  0  0  0  0  0  0  0  0
  139.1889  150.4046  143.0744 C   0  0  0  0  0  0  0  0  0  0  0  0
  138.2456  150.9517  144.0738 C   0  0  0  0  0  0  0  0  0  0  0  0
  139.6584  149.8786  138.1597 C   0  0  0  0  0  0  0  0  0  0  0  0
  137.0523  149.6910  139.2208 C   0  0  0  0  0  0  0  0  0  0  0  0
  136.5812  150.3293  142.9806 C   0  0  0  0  0  0  0  0  0  0  0  0
  137.0504  150.7099  144.0652 C   0  0  0  0  0  0  0  0  0  0  0  0
  136.1422  150.9897  145.3529 C   0  0  0  0  0  0  0  0  0  0  0  0
  135.1679  151.9852  145.1581 C   0  0  0  0  0  0  0  0  0  0  0  0
  135.3111  153.0428  146.0806 C   0  0  0  0  0  0  0  0  0  0  0  0
  1  2  2  0
  1  3  1  0
  3  4  1  0
  4  5  2  0
  3  6  1  0
  6  7  2  0
  2  8  1  0
  2  9  1  0
  5  9  1  0
  4 10  1  0
  7 11  1  0
 10 11  2  0
 11 12  1  0
 12 13  1  0
 13 14  1  0
M  END
$$$$
