
     RDKit          3D

 14 15  0  0  0  0  0  0  0  0999 V2000
  139.3429  149.9930  140.5895 C   0  0  0  0  0  0  0  0  0  0  0  0
  138.9526  149.9228  139.3665 C   0  0  0  0  0  0  0  0  0  0  0  0
  138.6128  150.1151  141.6415 C   0  0  0  0  0  0  0  0  0  0  0  0
  137.1849  149.8640  141.8304 C   0  0  0  0  0  0  0  0  0  0  0  0
  136.5144  149.7572  140.5779 C   0  0  0  0  0  0  0  0  0  0  0  0
  139.1889  150.4046  143.0744 C   0  0  0  0  0  0  0  0  0  0  0  0
  138.2456  150.9517  144.0738 C   0  0  0  0  0  0  0  0  0  0  0  0
  139.6584  149.8786  138.1597 C   0  0  0  0  0  0  0  0  0  0  0  0
  136.9428  150.9175  143.8530 C   0  0  0  0  0  0  0  0  0  0  0  0
  136.3051  150.2968  142.8067 C   0  0  0  0  0  0  0  0  0  0  0  0
  136.1534  151.4322  145.0667 C   0  0  0  0  0  0  0  0  0  0  0  0
  136.5579  151.6324  146.2697 C   0  0  0  0  0  0  0  0  0  0  0  0
  135.2527  152.2455  144.8260 C   0  0  0  0  0  0  0  0  0  0  0  0
  137.2745  149.6704  139.2520 C   0  0  0  0  0  0  0  0  0  0  0  0
  1  2  2  0
  1  3  1  0
  3  4  1  0
  4  5  2  0
  3  6  1  0
  6  7  2  0
  2  8  1  0
  7  9  1  0
  4 10  1  0
  9 10  2  0
  9 11  1  0
 11 12  1  0
 11 13  1  0
  2 14  1  0
  5 14  1  0
M  END
$$$$
