
     RDKit          3D

 14 15  0  0  0  0  0  0  0  0999 V2000
  139.3429  149.9930  140.5895 C   0  0  0  0  0  0  0  0  0  0  0  0
  138.9526  149.9228  139.3665 C   0  0  0  0  0  0  0  0  0  0  0  0
  138.6128  150.1151  141.6415 C   0  0  0  0  0  0  0  0  0  0  0  0
  137.1849  149.8640  141.8304 C   0  0  0  0  0  0  0  0  0  0  0  0
  136.5144  149.7572  140.5779 C   0  0  0  0  0  0  0  0  0  0  0  0
  139.1166  150.5253  143.0849 C   0  0  0  0  0  0  0  0  0  0  0  0
  138.2341  151.1490  143.8701 C   0  0  0  0  0  0  0  0  0  0  0  0
  136.9087  150.9585  143.7785 C   0  0  0  0  0  0  0  0  0  0  0  0
  135.1108  149.6280  140.3918 C   0  0  0  0  0  0  0  0  0  0  0  0
  139.6678  149.8930  138.1749 C   0  0  0  0  0  0  0  0  0  0  0  0
  136.3915  150.3480  142.8690 C   0  0  0  0  0  0  0  0  0  0  0  0
  137.0325  149.2708  139.2367 C   0  0  0  0  0  0  0  0  0  0  0  0
  138.0528  149.6558  138.7086 C   0  0  0  0  0  0  0  0  0  0  0  0
  135.9182  151.7051  145.0452 C   0  0  0  0  0  0  0  0  0  0  0  0
  1  2  2  0
  1  3  1  0
  3  4  1  0
  4  5  2  0
  3  6  1  0
  6  7  2  0
  7  8  1  0
  5  9  1  0
  2 10  1  0
  4 11  1  0
  8 11  2  0
  5 12  1  0
  2 13  1  0
 12 13  2  0
  8 14  1  0
M  END
$$$$
