
     RDKit          3D

  9  9  0  0  0  0  0  0  0  0999 V2000
  139.2620  151.0920  142.4042 C   0  0  0  0  0  0  0  0  0  0  0  0
  138.8619  152.1309  142.9034 C   0  0  0  0  0  0  0  0  0  0  0  0
  137.7834  151.8925  143.8932 C   0  0  0  0  0  0  0  0  0  0  0  0
  140.0678  150.9649  141.1539 C   0  0  0  0  0  0  0  0  0  0  0  0
  137.3612  150.4927  143.9586 C   0  0  0  0  0  0  0  0  0  0  0  0
  138.6091  149.8559  142.5429 C   0  0  0  0  0  0  0  0  0  0  0  0
  136.3302  150.3466  145.1098 C   0  0  0  0  0  0  0  0  0  0  0  0
  137.7361  149.4946  143.5021 N   0  0  0  0  0  0  0  0  0  0  0  0
  140.1421  150.8167  140.0297 C   0  0  0  0  0  0  0  0  0  0  0  0
  1  2  1  0
  2  3  2  0
  1  4  1  0
  3  5  1  0
  1  6  2  0
  5  7  1  0
  5  8  2  0
  6  8  1  0
  4  9  3  0
M  END
$$$$
