
     RDKit          3D

  9  9  0  0  0  0  0  0  0  0999 V2000
  138.7250  151.5761  143.3186 C   0  0  0  0  0  0  0  0  0  0  0  0
  137.9190  152.3260  143.7534 C   0  0  0  0  0  0  0  0  0  0  0  0
  136.7518  151.8065  144.4377 C   0  0  0  0  0  0  0  0  0  0  0  0
  136.7830  150.4602  144.6806 C   0  0  0  0  0  0  0  0  0  0  0  0
  135.6809  152.5421  145.0268 C   0  0  0  0  0  0  0  0  0  0  0  0
  138.4873  150.1701  143.2481 C   0  0  0  0  0  0  0  0  0  0  0  0
  137.6610  149.5676  144.0954 C   0  0  0  0  0  0  0  0  0  0  0  0
  134.6414  151.9918  145.7393 C   0  0  0  0  0  0  0  0  0  0  0  0
  135.6873  153.9276  144.8563 C   0  0  0  0  0  0  0  0  0  0  0  0
  1  2  1  0
  2  3  2  0
  3  4  1  0
  3  5  1  0
  1  6  2  0
  4  7  2  0
  6  7  1  0
  5  8  1  0
  5  9  2  0
M  END
$$$$
