
     RDKit          3D

 14 15  0  0  0  0  0  0  0  0999 V2000
  140.3024  150.2148  139.4796 Cl  0  0  0  0  0  0  0  0  0  0  0  0
  138.6763  150.1843  140.5310 C   0  0  0  0  0  0  0  0  0  0  0  0
  137.6367  149.3820  140.0914 C   0  0  0  0  0  0  0  0  0  0  0  0
  139.2364  150.7157  141.5758 C   0  0  0  0  0  0  0  0  0  0  0  0
  138.2159  150.6942  142.6902 C   0  0  0  0  0  0  0  0  0  0  0  0
  137.4463  149.0252  138.7466 C   0  0  0  0  0  0  0  0  0  0  0  0
  136.9084  150.8161  142.5498 C   0  0  0  0  0  0  0  0  0  0  0  0
  136.3019  150.0704  141.3326 C   0  0  0  0  0  0  0  0  0  0  0  0
  138.2535  151.6771  144.0099 C   0  0  0  0  0  0  0  0  0  0  0  0
  137.3548  151.8775  144.6580 C   0  0  0  0  0  0  0  0  0  0  0  0
  136.1619  151.8499  144.3848 C   0  0  0  0  0  0  0  0  0  0  0  0
  135.0051  152.2945  145.2313 C   0  0  0  0  0  0  0  0  0  0  0  0
  135.8461  151.1648  143.1896 N   0  0  0  0  0  0  0  0  0  0  0  0
  135.0978  153.3000  146.0006 C   0  0  0  0  0  0  0  0  0  0  0  0
  1  2  1  0
  2  3  1  0
  2  4  2  0
  4  5  1  0
  3  6  1  0
  5  7  2  0
  3  8  2  0
  7  8  1  0
  5  9  1  0
  9 10  1  0
 10 11  1  0
 11 12  1  0
  7 13  1  0
 11 13  2  0
 12 14  2  0
M  END
$$$$
