
     RDKit          3D

 15 16  0  0  0  0  0  0  0  0999 V2000
  139.3429  149.9930  140.5895 C   0  0  0  0  0  0  0  0  0  0  0  0
  138.9526  149.9228  139.3665 C   0  0  0  0  0  0  0  0  0  0  0  0
  138.6128  150.1151  141.6415 C   0  0  0  0  0  0  0  0  0  0  0  0
  137.1849  149.8640  141.8304 C   0  0  0  0  0  0  0  0  0  0  0  0
  136.5144  149.7572  140.5779 C   0  0  0  0  0  0  0  0  0  0  0  0
  139.1166  150.5253  143.0849 C   0  0  0  0  0  0  0  0  0  0  0  0
  138.1694  151.0130  144.0451 C   0  0  0  0  0  0  0  0  0  0  0  0
  136.8764  150.9305  143.8065 C   0  0  0  0  0  0  0  0  0  0  0  0
  136.2855  150.2865  142.8108 C   0  0  0  0  0  0  0  0  0  0  0  0
  136.0190  151.6165  144.7447 C   0  0  0  0  0  0  0  0  0  0  0  0
  134.9783  151.5025  145.0655 C   0  0  0  0  0  0  0  0  0  0  0  0
  135.2240  149.4832  140.3941 C   0  0  0  0  0  0  0  0  0  0  0  0
  136.7231  152.6973  145.5096 C   0  0  0  0  0  0  0  0  0  0  0  0
  139.7560  149.9359  138.2182 C   0  0  0  0  0  0  0  0  0  0  0  0
  137.4428  149.6737  139.2197 C   0  0  0  0  0  0  0  0  0  0  0  0
  1  2  2  0
  1  3  1  0
  3  4  1  0
  4  5  2  0
  3  6  1  0
  6  7  2  0
  7  8  1  0
  4  9  1  0
  8  9  1  0
  8 10  2  3
 10 11  1  0
  5 12  1  0
 10 13  1  0
  2 14  1  0
  2 15  1  0
  5 15  1  0
M  END
$$$$
