
     RDKit          3D

 15 16  0  0  0  0  0  0  0  0999 V2000
  139.3429  149.9930  140.5895 C   0  0  0  0  0  0  0  0  0  0  0  0
  138.9526  149.9228  139.3665 C   0  0  0  0  0  0  0  0  0  0  0  0
  138.6128  150.1151  141.6415 C   0  0  0  0  0  0  0  0  0  0  0  0
  137.1849  149.8640  141.8304 C   0  0  0  0  0  0  0  0  0  0  0  0
  136.5144  149.7572  140.5779 C   0  0  0  0  0  0  0  0  0  0  0  0
  139.1889  150.4046  143.0744 C   0  0  0  0  0  0  0  0  0  0  0  0
  138.2456  150.9517  144.0738 C   0  0  0  0  0  0  0  0  0  0  0  0
  139.6584  149.8786  138.1597 C   0  0  0  0  0  0  0  0  0  0  0  0
  135.0341  149.6412  140.5207 C   0  0  0  0  0  0  0  0  0  0  0  0
  137.4108  149.6872  139.2177 C   0  0  0  0  0  0  0  0  0  0  0  0
  136.9980  151.2120  143.8950 C   0  0  0  0  0  0  0  0  0  0  0  0
  136.2325  151.7392  144.9678 C   0  0  0  0  0  0  0  0  0  0  0  0
  136.4101  150.3680  142.9070 C   0  0  0  0  0  0  0  0  0  0  0  0
  134.9761  151.3780  145.2368 C   0  0  0  0  0  0  0  0  0  0  0  0
  134.1419  152.1434  146.2447 C   0  0  0  0  0  0  0  0  0  0  0  0
  1  2  2  0
  1  3  1  0
  3  4  1  0
  4  5  2  0
  3  6  1  0
  6  7  2  0
  2  8  1  0
  5  9  1  0
  2 10  1  0
  5 10  1  0
  7 11  1  0
 11 12  1  0
  4 13  1  0
 11 13  2  0
 12 14  2  3
 14 15  1  0
M  END
$$$$
