
     RDKit          3D

 15 17  0  0  0  0  0  0  0  0999 V2000
  139.3429  149.9930  140.5895 C   0  0  0  0  0  0  0  0  0  0  0  0
  138.9526  149.9228  139.3665 C   0  0  0  0  0  0  0  0  0  0  0  0
  138.6128  150.1151  141.6415 C   0  0  0  0  0  0  0  0  0  0  0  0
  137.1849  149.8640  141.8304 C   0  0  0  0  0  0  0  0  0  0  0  0
  136.5144  149.7572  140.5779 C   0  0  0  0  0  0  0  0  0  0  0  0
  139.1166  150.5253  143.0849 C   0  0  0  0  0  0  0  0  0  0  0  0
  138.2341  151.1490  143.8701 C   0  0  0  0  0  0  0  0  0  0  0  0
  136.9087  150.9585  143.7785 C   0  0  0  0  0  0  0  0  0  0  0  0
  136.1432  151.4444  144.9802 C   0  0  0  0  0  0  0  0  0  0  0  0
  137.1435  149.6730  139.2434 C   0  0  0  0  0  0  0  0  0  0  0  0
  136.4317  151.2410  146.2723 C   0  0  0  0  0  0  0  0  0  0  0  0
  136.4143  150.2775  142.8701 C   0  0  0  0  0  0  0  0  0  0  0  0
  135.0204  152.2757  144.8914 C   0  0  0  0  0  0  0  0  0  0  0  0
  134.5268  152.8703  146.1291 C   0  0  0  0  0  0  0  0  0  0  0  0
  135.4005  152.4251  147.1094 C   0  0  0  0  0  0  0  0  0  0  0  0
  1  2  2  0
  1  3  1  0
  3  4  1  0
  4  5  2  0
  3  6  1  0
  6  7  2  0
  7  8  1  0
  8  9  1  0
  2 10  1  0
  5 10  1  0
  9 11  1  0
  4 12  1  0
  8 12  2  0
  9 13  2  0
 13 14  1  0
 11 15  1  0
 14 15  1  0
M  END
$$$$
