
     RDKit          3D

  9  9  0  0  0  0  0  0  0  0999 V2000
  139.5345  150.8917  142.2314 C   0  0  0  0  0  0  0  0  0  0  0  0
  138.9995  151.9980  142.6394 C   0  0  0  0  0  0  0  0  0  0  0  0
  138.9541  149.6529  142.4257 C   0  0  0  0  0  0  0  0  0  0  0  0
  138.2673  151.9686  143.7032 C   0  0  0  0  0  0  0  0  0  0  0  0
  137.8640  153.0944  144.4529 C   0  0  0  0  0  0  0  0  0  0  0  0
  137.6960  150.6263  144.1283 C   0  0  0  0  0  0  0  0  0  0  0  0
  138.0892  149.5106  143.5592 C   0  0  0  0  0  0  0  0  0  0  0  0
  136.4603  153.3016  144.8453 C   0  0  0  0  0  0  0  0  0  0  0  0
  136.0412  154.4947  145.3560 C   0  0  0  0  0  0  0  0  0  0  0  0
  1  2  2  0
  1  3  1  0
  2  4  1  0
  4  5  1  0
  4  6  2  0
  3  7  2  0
  6  7  1  0
  5  8  1  0
  8  9  1  0
M  END
$$$$
