
     RDKit          3D

 16 18  0  0  0  0  0  0  0  0999 V2000
  139.5546  150.5076  140.4455 C   0  0  0  0  0  0  0  0  0  0  0  0
  139.2164  150.0146  139.3742 C   0  0  0  0  0  0  0  0  0  0  0  0
  138.8577  150.3073  141.5866 C   0  0  0  0  0  0  0  0  0  0  0  0
  137.9802  149.2985  139.2390 C   0  0  0  0  0  0  0  0  0  0  0  0
  137.2016  149.2056  140.2784 C   0  0  0  0  0  0  0  0  0  0  0  0
  135.7673  148.7987  140.2461 C   0  0  0  0  0  0  0  0  0  0  0  0
  139.4101  150.8793  142.9241 C   0  0  0  0  0  0  0  0  0  0  0  0
  138.3780  151.0479  144.0095 C   0  0  0  0  0  0  0  0  0  0  0  0
  137.1920  151.0047  143.6833 C   0  0  0  0  0  0  0  0  0  0  0  0
  136.2389  151.5051  144.7137 C   0  0  0  0  0  0  0  0  0  0  0  0
  136.4805  151.4470  146.0663 C   0  0  0  0  0  0  0  0  0  0  0  0
  137.6279  149.8942  141.5344 C   0  0  0  0  0  0  0  0  0  0  0  0
  136.7723  150.4724  142.5640 N   0  0  0  0  0  0  0  0  0  0  0  0
  135.1027  152.2429  144.6841 C   0  0  0  0  0  0  0  0  0  0  0  0
  134.5295  152.7791  145.7088 C   0  0  0  0  0  0  0  0  0  0  0  0
  135.3180  152.4095  146.8483 C   0  0  0  0  0  0  0  0  0  0  0  0
  1  2  2  0
  1  3  1  0
  2  4  1  0
  4  5  2  0
  5  6  1  0
  3  7  1  0
  7  8  2  0
  8  9  1  0
  9 10  1  0
 10 11  1  0
  3 12  2  0
  5 12  1  0
  9 13  2  0
 12 13  1  0
 10 14  2  0
 14 15  1  0
 11 16  2  0
 15 16  2  0
M  END
$$$$
