
     RDKit          3D

 10 11  0  0  0  0  0  0  0  0999 V2000
  139.2620  151.0920  142.4042 C   0  0  0  0  0  0  0  0  0  0  0  0
  138.8619  152.1309  142.9034 C   0  0  0  0  0  0  0  0  0  0  0  0
  137.9125  151.7980  143.7817 C   0  0  0  0  0  0  0  0  0  0  0  0
  138.7623  149.7969  142.5199 C   0  0  0  0  0  0  0  0  0  0  0  0
  137.2982  152.8723  144.6403 C   0  0  0  0  0  0  0  0  0  0  0  0
  136.2247  152.7762  145.1568 C   0  0  0  0  0  0  0  0  0  0  0  0
  137.3990  150.3717  143.9108 C   0  0  0  0  0  0  0  0  0  0  0  0
  136.3717  150.3353  144.9753 C   0  0  0  0  0  0  0  0  0  0  0  0
  135.7042  151.5340  145.6970 C   0  0  0  0  0  0  0  0  0  0  0  0
  137.8344  149.5657  143.4655 N   0  0  0  0  0  0  0  0  0  0  0  0
  1  2  1  0
  2  3  2  0
  1  4  2  0
  3  5  1  0
  5  6  2  0
  3  7  1  0
  7  8  2  0
  6  9  1  0
  8  9  1  0
  4 10  1  0
  7 10  1  0
M  END
$$$$
