
     RDKit          3D

 10 10  0  0  0  0  0  0  0  0999 V2000
  139.0001  149.7643  140.3654 C   0  0  0  0  0  0  0  0  0  0  0  0
  138.7141  149.5451  139.1252 C   0  0  0  0  0  0  0  0  0  0  0  0
  138.1592  150.0995  141.2821 C   0  0  0  0  0  0  0  0  0  0  0  0
  137.3238  149.5788  138.6759 C   0  0  0  0  0  0  0  0  0  0  0  0
  136.4652  149.5465  139.6311 C   0  0  0  0  0  0  0  0  0  0  0  0
  138.5749  150.4933  142.6481 C   0  0  0  0  0  0  0  0  0  0  0  0
  137.6893  150.9670  143.6154 C   0  0  0  0  0  0  0  0  0  0  0  0
  134.9986  149.6151  139.3670 O   0  0  0  0  0  0  0  0  0  0  0  0
  136.7158  149.9321  141.0127 C   0  0  0  0  0  0  0  0  0  0  0  0
  138.2959  151.6295  144.7952 C   0  0  0  0  0  0  0  0  0  0  0  0
  1  2  2  0
  1  3  1  0
  2  4  1  0
  4  5  2  0
  3  6  1  0
  6  7  2  3
  5  8  1  0
  3  9  2  0
  5  9  1  0
  7 10  1  0
M  END
$$$$
