
     RDKit          3D

  9  9  0  0  0  0  0  0  0  0999 V2000
  140.3024  150.2148  139.4796 Cl  0  0  0  0  0  0  0  0  0  0  0  0
  138.6763  150.1843  140.5310 C   0  0  0  0  0  0  0  0  0  0  0  0
  137.6367  149.3820  140.0914 C   0  0  0  0  0  0  0  0  0  0  0  0
  138.8646  150.7169  141.4514 C   0  0  0  0  0  0  0  0  0  0  0  0
  137.8185  150.8008  142.5159 C   0  0  0  0  0  0  0  0  0  0  0  0
  137.6093  148.9034  138.7245 C   0  0  0  0  0  0  0  0  0  0  0  0
  136.5110  149.4076  140.9864 C   0  0  0  0  0  0  0  0  0  0  0  0
  136.6472  150.0954  142.1440 C   0  0  0  0  0  0  0  0  0  0  0  0
  137.8559  151.6001  143.9340 Cl  0  0  0  0  0  0  0  0  0  0  0  0
  1  2  1  0
  2  3  2  0
  2  4  1  0
  4  5  2  0
  3  6  1  0
  3  7  1  0
  5  8  1  0
  7  8  2  0
  5  9  1  0
M  END
$$$$
