
     RDKit          3D

 10 10  0  0  0  0  0  0  0  0999 V2000
  139.5546  150.5076  140.4455 C   0  0  0  0  0  0  0  0  0  0  0  0
  139.2164  150.0146  139.3742 C   0  0  0  0  0  0  0  0  0  0  0  0
  138.8577  150.3073  141.5866 C   0  0  0  0  0  0  0  0  0  0  0  0
  137.9802  149.2985  139.2390 C   0  0  0  0  0  0  0  0  0  0  0  0
  137.2016  149.2056  140.2784 C   0  0  0  0  0  0  0  0  0  0  0  0
  139.3293  150.8987  142.9149 C   0  0  0  0  0  0  0  0  0  0  0  0
  138.2961  151.0802  143.9342 C   0  0  0  0  0  0  0  0  0  0  0  0
  137.4957  149.7651  141.4756 C   0  0  0  0  0  0  0  0  0  0  0  0
  138.1847  152.2775  144.6596 C   0  0  0  0  0  0  0  0  0  0  0  0
  136.7410  152.6042  144.7816 C   0  0  0  0  0  0  0  0  0  0  0  0
  1  2  2  0
  1  3  1  0
  2  4  1  0
  4  5  2  0
  3  6  1  0
  6  7  2  3
  3  8  2  0
  5  8  1  0
  7  9  1  0
  9 10  1  0
M  END
$$$$
