
     RDKit          3D

 10 10  0  0  0  0  0  0  0  0999 V2000
  140.3024  150.2148  139.4796 Cl  0  0  0  0  0  0  0  0  0  0  0  0
  138.6763  150.1843  140.5310 C   0  0  0  0  0  0  0  0  0  0  0  0
  137.6367  149.3820  140.0914 C   0  0  0  0  0  0  0  0  0  0  0  0
  138.7708  150.9257  141.6508 C   0  0  0  0  0  0  0  0  0  0  0  0
  137.6808  150.8822  142.5406 C   0  0  0  0  0  0  0  0  0  0  0  0
  137.8325  151.5203  143.8899 C   0  0  0  0  0  0  0  0  0  0  0  0
  136.6872  151.6925  144.6937 C   0  0  0  0  0  0  0  0  0  0  0  0
  135.5367  151.0659  144.2046 C   0  0  0  0  0  0  0  0  0  0  0  0
  136.6636  150.0961  141.8631 C   0  0  0  0  0  0  0  0  0  0  0  0
  136.5847  149.5106  140.7705 C   0  0  0  0  0  0  0  0  0  0  0  0
  1  2  1  0
  2  3  1  0
  2  4  2  0
  4  5  1  0
  5  6  1  0
  6  7  2  3
  7  8  1  0
  5  9  2  0
  3 10  2  0
  9 10  1  0
M  END
$$$$
