
     RDKit          3D

 10 10  0  0  0  0  0  0  0  0999 V2000
  140.3024  150.2148  139.4796 Cl  0  0  0  0  0  0  0  0  0  0  0  0
  138.6763  150.1843  140.5310 C   0  0  0  0  0  0  0  0  0  0  0  0
  137.6367  149.3820  140.0914 C   0  0  0  0  0  0  0  0  0  0  0  0
  138.8646  150.7169  141.4514 C   0  0  0  0  0  0  0  0  0  0  0  0
  137.8185  150.8008  142.5159 C   0  0  0  0  0  0  0  0  0  0  0  0
  138.0478  151.4542  143.8200 C   0  0  0  0  0  0  0  0  0  0  0  0
  136.4323  149.6393  140.3175 C   0  0  0  0  0  0  0  0  0  0  0  0
  136.5005  150.3750  142.1274 C   0  0  0  0  0  0  0  0  0  0  0  0
  135.8620  149.9973  141.3979 C   0  0  0  0  0  0  0  0  0  0  0  0
  139.2532  151.4926  144.3645 C   0  0  0  0  0  0  0  0  0  0  0  0
  1  2  1  0
  2  3  2  0
  2  4  1  0
  4  5  2  0
  5  6  1  0
  3  7  1  0
  5  8  1  0
  7  9  2  0
  8  9  2  0
  6 10  2  0
M  END
$$$$
