
     RDKit          3D

 10 10  0  0  0  0  0  0  0  0999 V2000
  140.3024  150.2148  139.4796 Cl  0  0  0  0  0  0  0  0  0  0  0  0
  138.6763  150.1843  140.5310 C   0  0  0  0  0  0  0  0  0  0  0  0
  137.6367  149.3820  140.0914 C   0  0  0  0  0  0  0  0  0  0  0  0
  138.8646  150.7169  141.4514 C   0  0  0  0  0  0  0  0  0  0  0  0
  137.5305  148.8052  138.7934 C   0  0  0  0  0  0  0  0  0  0  0  0
  137.9001  150.8460  142.6225 C   0  0  0  0  0  0  0  0  0  0  0  0
  136.5033  149.4573  141.0392 C   0  0  0  0  0  0  0  0  0  0  0  0
  135.2577  149.0368  140.6689 C   0  0  0  0  0  0  0  0  0  0  0  0
  136.7794  150.1850  142.2772 C   0  0  0  0  0  0  0  0  0  0  0  0
  138.1572  151.4642  144.0223 Cl  0  0  0  0  0  0  0  0  0  0  0  0
  1  2  1  0
  2  3  2  0
  2  4  1  0
  3  5  1  0
  4  6  2  0
  3  7  1  0
  7  8  1  0
  6  9  1  0
  7  9  2  0
  6 10  1  0
M  END
$$$$
