
     RDKit          3D

 11 12  0  0  0  0  0  0  0  0999 V2000
  138.9700  151.3143  142.5679 C   0  0  0  0  0  0  0  0  0  0  0  0
  138.6023  152.0885  143.2650 C   0  0  0  0  0  0  0  0  0  0  0  0
  137.4866  151.7382  144.1969 C   0  0  0  0  0  0  0  0  0  0  0  0
  139.9970  151.3974  141.4279 C   0  0  0  0  0  0  0  0  0  0  0  0
  137.1554  150.3528  144.0258 C   0  0  0  0  0  0  0  0  0  0  0  0
  139.6392  150.7247  140.2349 C   0  0  0  0  0  0  0  0  0  0  0  0
  138.1627  149.9703  142.4930 C   0  0  0  0  0  0  0  0  0  0  0  0
  137.5294  149.5981  143.2616 C   0  0  0  0  0  0  0  0  0  0  0  0
  138.6350  149.9084  140.0441 C   0  0  0  0  0  0  0  0  0  0  0  0
  138.2434  149.3499  141.0976 C   0  0  0  0  0  0  0  0  0  0  0  0
  137.0758  152.7381  145.1397 O   0  0  0  0  0  0  0  0  0  0  0  0
  1  2  1  0
  2  3  2  0
  1  4  1  0
  3  5  1  0
  4  6  2  0
  1  7  2  0
  5  8  2  0
  7  8  1  0
  6  9  1  0
  7 10  1  0
  9 10  2  0
  3 11  1  0
M  END
$$$$
