
     RDKit          3D

 11 11  0  0  0  0  0  0  0  0999 V2000
  140.3024  150.2148  139.4796 Cl  0  0  0  0  0  0  0  0  0  0  0  0
  138.6763  150.1843  140.5310 C   0  0  0  0  0  0  0  0  0  0  0  0
  137.6367  149.3820  140.0914 C   0  0  0  0  0  0  0  0  0  0  0  0
  138.7708  150.9257  141.6508 C   0  0  0  0  0  0  0  0  0  0  0  0
  137.6808  150.8822  142.5406 C   0  0  0  0  0  0  0  0  0  0  0  0
  137.6715  148.8749  138.7100 C   0  0  0  0  0  0  0  0  0  0  0  0
  137.8290  151.4164  143.9042 C   0  0  0  0  0  0  0  0  0  0  0  0
  136.7219  151.6720  144.7339 C   0  0  0  0  0  0  0  0  0  0  0  0
  135.5391  151.6447  144.2265 C   0  0  0  0  0  0  0  0  0  0  0  0
  136.4632  149.6269  140.6826 C   0  0  0  0  0  0  0  0  0  0  0  0
  136.4953  150.2604  141.9287 C   0  0  0  0  0  0  0  0  0  0  0  0
  1  2  1  0
  2  3  1  0
  2  4  2  0
  4  5  1  0
  3  6  1  0
  5  7  1  0
  7  8  1  0
  8  9  2  0
  3 10  2  0
  5 11  2  0
 10 11  1  0
M  END
$$$$
