
     RDKit          3D

 11 12  0  0  0  0  0  0  0  0999 V2000
  139.5546  150.5076  140.4455 C   0  0  0  0  0  0  0  0  0  0  0  0
  139.2164  150.0146  139.3742 C   0  0  0  0  0  0  0  0  0  0  0  0
  138.8577  150.3073  141.5866 C   0  0  0  0  0  0  0  0  0  0  0  0
  137.9802  149.2985  139.2390 C   0  0  0  0  0  0  0  0  0  0  0  0
  137.1572  149.1627  140.3928 C   0  0  0  0  0  0  0  0  0  0  0  0
  139.3387  150.9198  142.9183 C   0  0  0  0  0  0  0  0  0  0  0  0
  135.7437  148.8009  140.3461 C   0  0  0  0  0  0  0  0  0  0  0  0
  138.3150  151.0618  143.9910 C   0  0  0  0  0  0  0  0  0  0  0  0
  137.1342  150.4871  143.5884 C   0  0  0  0  0  0  0  0  0  0  0  0
  137.6410  149.7654  141.5522 C   0  0  0  0  0  0  0  0  0  0  0  0
  136.7820  149.9270  142.5347 N   0  0  0  0  0  0  0  0  0  0  0  0
  1  2  2  0
  1  3  1  0
  2  4  1  0
  4  5  2  0
  3  6  1  0
  5  7  1  0
  6  8  2  0
  8  9  1  0
  3 10  2  0
  5 10  1  0
  9 11  2  0
 10 11  1  0
M  END
$$$$
