
     RDKit          3D

 11 12  0  0  0  0  0  0  0  0999 V2000
  140.3024  150.2148  139.4796 Cl  0  0  0  0  0  0  0  0  0  0  0  0
  138.6763  150.1843  140.5310 C   0  0  0  0  0  0  0  0  0  0  0  0
  137.6367  149.3820  140.0914 C   0  0  0  0  0  0  0  0  0  0  0  0
  138.7469  150.9460  141.6721 C   0  0  0  0  0  0  0  0  0  0  0  0
  137.7520  150.8717  142.6252 C   0  0  0  0  0  0  0  0  0  0  0  0
  136.6300  150.0366  142.2586 C   0  0  0  0  0  0  0  0  0  0  0  0
  135.5190  150.1701  143.1845 C   0  0  0  0  0  0  0  0  0  0  0  0
  136.4788  149.4868  140.9498 C   0  0  0  0  0  0  0  0  0  0  0  0
  135.9341  150.9695  144.4533 C   0  0  0  0  0  0  0  0  0  0  0  0
  137.0388  150.7629  145.0602 C   0  0  0  0  0  0  0  0  0  0  0  0
  138.0579  151.1581  144.0504 C   0  0  0  0  0  0  0  0  0  0  0  0
  1  2  1  0
  2  3  2  0
  2  4  1  0
  4  5  2  0
  5  6  1  0
  6  7  1  0
  3  8  1  0
  6  8  2  0
  7  9  1  0
  9 10  2  0
  5 11  1  0
 10 11  1  0
M  END
$$$$
