
     RDKit          3D

 11 12  0  0  0  0  0  0  0  0999 V2000
  139.2620  151.0920  142.4042 C   0  0  0  0  0  0  0  0  0  0  0  0
  138.8619  152.1309  142.9034 C   0  0  0  0  0  0  0  0  0  0  0  0
  137.9125  151.7980  143.7817 C   0  0  0  0  0  0  0  0  0  0  0  0
  138.8290  150.4014  141.6007 C   0  0  0  0  0  0  0  0  0  0  0  0
  137.6686  149.9547  141.7571 C   0  0  0  0  0  0  0  0  0  0  0  0
  137.5096  152.5999  144.9582 C   0  0  0  0  0  0  0  0  0  0  0  0
  136.8118  150.7640  143.7827 C   0  0  0  0  0  0  0  0  0  0  0  0
  135.9232  150.7938  144.8969 C   0  0  0  0  0  0  0  0  0  0  0  0
  136.3373  152.3515  145.4586 C   0  0  0  0  0  0  0  0  0  0  0  0
  136.8601  149.4342  140.6563 C   0  0  0  0  0  0  0  0  0  0  0  0
  136.8250  150.2809  142.8992 N   0  0  0  0  0  0  0  0  0  0  0  0
  1  2  1  0
  2  3  2  0
  1  4  2  0
  4  5  1  0
  3  6  1  0
  3  7  1  0
  7  8  2  0
  6  9  2  0
  8  9  1  0
  5 10  1  0
  5 11  2  0
  7 11  1  0
M  END
$$$$
