
     RDKit          3D

 11 12  0  0  0  0  0  0  0  0999 V2000
  139.2620  151.0920  142.4042 C   0  0  0  0  0  0  0  0  0  0  0  0
  138.8619  152.1309  142.9034 C   0  0  0  0  0  0  0  0  0  0  0  0
  137.7834  151.8925  143.8932 C   0  0  0  0  0  0  0  0  0  0  0  0
  137.3598  150.5409  144.0625 C   0  0  0  0  0  0  0  0  0  0  0  0
  136.3243  150.4647  145.1225 C   0  0  0  0  0  0  0  0  0  0  0  0
  139.2661  149.7548  142.8054 C   0  0  0  0  0  0  0  0  0  0  0  0
  139.9761  151.1310  141.1435 C   0  0  0  0  0  0  0  0  0  0  0  0
  138.0988  149.6117  143.7213 C   0  0  0  0  0  0  0  0  0  0  0  0
  139.8646  150.2796  140.0534 C   0  0  0  0  0  0  0  0  0  0  0  0
  135.7453  151.6036  145.3722 C   0  0  0  0  0  0  0  0  0  0  0  0
  136.8978  152.8439  144.6386 C   0  0  0  0  0  0  0  0  0  0  0  0
  1  2  1  0
  2  3  2  0
  3  4  1  0
  4  5  2  0
  1  6  1  0
  1  7  2  3
  4  8  1  0
  6  8  2  0
  7  9  1  0
  5 10  1  0
  3 11  1  0
 10 11  2  0
M  END
$$$$
