
     RDKit          3D

 11 11  0  0  0  0  0  0  0  0999 V2000
  139.3429  149.9930  140.5895 C   0  0  0  0  0  0  0  0  0  0  0  0
  138.9526  149.9228  139.3665 C   0  0  0  0  0  0  0  0  0  0  0  0
  138.6128  150.1151  141.6415 C   0  0  0  0  0  0  0  0  0  0  0  0
  139.1487  150.8810  142.9381 C   0  0  0  0  0  0  0  0  0  0  0  0
  138.1909  151.4503  143.6507 C   0  0  0  0  0  0  0  0  0  0  0  0
  136.8486  151.1576  143.5007 C   0  0  0  0  0  0  0  0  0  0  0  0
  139.7891  149.8046  138.2116 C   0  0  0  0  0  0  0  0  0  0  0  0
  136.4610  150.5308  142.6405 C   0  0  0  0  0  0  0  0  0  0  0  0
  137.1409  150.0513  141.5198 C   0  0  0  0  0  0  0  0  0  0  0  0
  136.0297  151.8969  144.5780 C   0  0  0  0  0  0  0  0  0  0  0  0
  136.2030  153.0420  145.0462 C   0  0  0  0  0  0  0  0  0  0  0  0
  1  2  2  3
  1  3  1  0
  3  4  1  0
  4  5  2  0
  5  6  1  0
  2  7  1  0
  6  8  2  0
  3  9  2  0
  8  9  1  0
  6 10  1  0
 10 11  2  0
M  END
$$$$
