
     RDKit          3D

 11 12  0  0  0  0  0  0  0  0999 V2000
  139.3427  149.9935  140.5880 C   0  0  0  0  0  0  0  0  0  0  0  0
  138.9528  149.9224  139.3656 C   0  0  0  0  0  0  0  0  0  0  0  0
  138.6122  150.1102  141.6416 C   0  0  0  0  0  0  0  0  0  0  0  0
  137.1910  149.8704  141.8331 C   0  0  0  0  0  0  0  0  0  0  0  0
  136.4707  150.2696  142.9684 C   0  0  0  0  0  0  0  0  0  0  0  0
  135.1320  150.3575  143.2741 C   0  0  0  0  0  0  0  0  0  0  0  0
  134.7294  151.0382  144.5260 C   0  0  0  0  0  0  0  0  0  0  0  0
  135.8759  151.1774  145.4350 C   0  0  0  0  0  0  0  0  0  0  0  0
  136.8864  151.8466  144.9355 C   0  0  0  0  0  0  0  0  0  0  0  0
  137.4272  151.1638  143.7468 C   0  0  0  0  0  0  0  0  0  0  0  0
  138.6412  150.6781  142.9715 C   0  0  0  0  0  0  0  0  0  0  0  0
  1  2  2  0
  1  3  1  0
  3  4  1  0
  4  5  2  0
  5  6  1  0
  6  7  2  0
  7  8  1  0
  8  9  1  0
  5 10  1  0
  9 10  1  0
  3 11  2  0
 10 11  1  0
M  END
$$$$
