
     RDKit          3D

 11 12  0  0  0  0  0  0  0  0999 V2000
  140.3036  150.2148  139.4783 Cl  0  0  0  0  0  0  0  0  0  0  0  0
  138.6783  150.1860  140.5319 C   0  0  0  0  0  0  0  0  0  0  0  0
  137.6385  149.3831  140.0945 C   0  0  0  0  0  0  0  0  0  0  0  0
  139.0332  150.8824  141.6179 C   0  0  0  0  0  0  0  0  0  0  0  0
  136.6575  149.6448  140.8215 C   0  0  0  0  0  0  0  0  0  0  0  0
  136.6519  150.4533  141.8775 C   0  0  0  0  0  0  0  0  0  0  0  0
  135.4324  150.7378  142.7868 C   0  0  0  0  0  0  0  0  0  0  0  0
  135.9124  151.2971  144.0363 C   0  0  0  0  0  0  0  0  0  0  0  0
  137.3283  151.5106  144.0749 C   0  0  0  0  0  0  0  0  0  0  0  0
  137.8520  151.0242  142.4722 C   0  0  0  0  0  0  0  0  0  0  0  0
  138.1888  151.9641  144.9571 C   0  0  0  0  0  0  0  0  0  0  0  0
  1  2  1  0
  2  3  2  0
  2  4  1  0
  3  5  1  0
  5  6  2  0
  6  7  1  0
  7  8  2  0
  8  9  1  0
  4 10  2  0
  6 10  1  0
  9 10  1  0
  9 11  1  0
M  END
$$$$
