
     RDKit          3D

 11 12  0  0  0  0  0  0  0  0999 V2000
  138.7236  151.5756  143.3190 C   0  0  0  0  0  0  0  0  0  0  0  0
  137.9189  152.3262  143.7538 C   0  0  0  0  0  0  0  0  0  0  0  0
  136.7533  151.7852  144.4573 C   0  0  0  0  0  0  0  0  0  0  0  0
  136.8351  150.4435  144.7144 C   0  0  0  0  0  0  0  0  0  0  0  0
  138.7274  150.3736  143.0180 C   0  0  0  0  0  0  0  0  0  0  0  0
  135.9800  149.8157  145.6775 C   0  0  0  0  0  0  0  0  0  0  0  0
  135.6744  152.2838  145.0180 C   0  0  0  0  0  0  0  0  0  0  0  0
  135.4404  152.3592  146.3074 C   0  0  0  0  0  0  0  0  0  0  0  0
  134.9321  153.3755  147.0000 C   0  0  0  0  0  0  0  0  0  0  0  0
  135.3161  150.9428  146.1998 C   0  0  0  0  0  0  0  0  0  0  0  0
  137.9687  149.4765  143.8187 C   0  0  0  0  0  0  0  0  0  0  0  0
  1  2  1  0
  2  3  2  0
  3  4  1  0
  1  5  2  0
  4  6  1  0
  3  7  1  0
  7  8  1  0
  8  9  1  0
  6 10  1  0
  8 10  1  0
  4 11  2  0
  5 11  1  0
M  END
$$$$
