
     RDKit          3D

 12 13  0  0  0  0  0  0  0  0999 V2000
  140.3036  150.2148  139.4783 Cl  0  0  0  0  0  0  0  0  0  0  0  0
  138.6783  150.1860  140.5319 C   0  0  0  0  0  0  0  0  0  0  0  0
  137.6385  149.3831  140.0945 C   0  0  0  0  0  0  0  0  0  0  0  0
  138.7505  150.9487  141.6715 C   0  0  0  0  0  0  0  0  0  0  0  0
  136.5606  149.6034  140.7973 C   0  0  0  0  0  0  0  0  0  0  0  0
  136.3933  150.3970  141.9259 C   0  0  0  0  0  0  0  0  0  0  0  0
  135.1767  150.5746  142.7425 C   0  0  0  0  0  0  0  0  0  0  0  0
  135.6228  151.2741  143.9969 C   0  0  0  0  0  0  0  0  0  0  0  0
  137.6512  151.0378  142.4402 C   0  0  0  0  0  0  0  0  0  0  0  0
  134.6715  151.5985  145.0540 C   0  0  0  0  0  0  0  0  0  0  0  0
  137.0561  151.6519  144.1868 C   0  0  0  0  0  0  0  0  0  0  0  0
  138.0267  151.6616  143.5389 C   0  0  0  0  0  0  0  0  0  0  0  0
  1  2  1  0
  2  3  2  0
  2  4  1  0
  3  5  1  0
  5  6  2  0
  6  7  1  0
  7  8  2  0
  4  9  2  0
  6  9  1  0
  8 10  1  0
  8 11  1  0
  9 12  1  0
 11 12  2  0
M  END
$$$$
