
     RDKit          3D

 12 13  0  0  0  0  0  0  0  0999 V2000
  139.3945  150.7512  142.0131 C   0  0  0  0  0  0  0  0  0  0  0  0
  139.0648  150.4899  140.7531 C   0  0  0  0  0  0  0  0  0  0  0  0
  138.4477  150.6358  143.0423 C   0  0  0  0  0  0  0  0  0  0  0  0
  137.8333  149.9852  140.4375 C   0  0  0  0  0  0  0  0  0  0  0  0
  136.8171  149.7852  141.4624 C   0  0  0  0  0  0  0  0  0  0  0  0
  138.7929  151.0544  144.4367 C   0  0  0  0  0  0  0  0  0  0  0  0
  137.7744  151.8317  144.9216 C   0  0  0  0  0  0  0  0  0  0  0  0
  136.5698  151.8076  144.4867 C   0  0  0  0  0  0  0  0  0  0  0  0
  135.4266  149.6118  141.0887 C   0  0  0  0  0  0  0  0  0  0  0  0
  136.1139  151.3119  143.5905 C   0  0  0  0  0  0  0  0  0  0  0  0
  137.0277  150.4924  142.5926 C   0  0  0  0  0  0  0  0  0  0  0  0
  135.4393  152.7278  145.4335 C   0  0  0  0  0  0  0  0  0  0  0  0
  1  2  2  0
  1  3  1  0
  2  4  1  0
  4  5  2  0
  3  6  1  0
  6  7  2  0
  7  8  1  0
  5  9  1  0
  8 10  2  0
  3 11  2  0
  5 11  1  0
 10 11  1  0
  8 12  1  0
M  END
$$$$
