
     RDKit          3D

 12 13  0  0  0  0  0  0  0  0999 V2000
  139.3427  149.9935  140.5880 C   0  0  0  0  0  0  0  0  0  0  0  0
  138.9528  149.9224  139.3656 C   0  0  0  0  0  0  0  0  0  0  0  0
  138.6122  150.1102  141.6416 C   0  0  0  0  0  0  0  0  0  0  0  0
  137.1910  149.8704  141.8331 C   0  0  0  0  0  0  0  0  0  0  0  0
  136.5134  149.7658  140.5812 C   0  0  0  0  0  0  0  0  0  0  0  0
  139.1788  150.4012  143.1353 C   0  0  0  0  0  0  0  0  0  0  0  0
  138.2249  150.9731  144.0852 C   0  0  0  0  0  0  0  0  0  0  0  0
  139.6664  149.8788  138.1669 C   0  0  0  0  0  0  0  0  0  0  0  0
  136.4809  150.1375  143.0193 C   0  0  0  0  0  0  0  0  0  0  0  0
  137.2085  149.6621  139.2889 C   0  0  0  0  0  0  0  0  0  0  0  0
  136.9754  150.6400  144.0913 C   0  0  0  0  0  0  0  0  0  0  0  0
  136.0429  150.9892  145.3959 C   0  0  0  0  0  0  0  0  0  0  0  0
  1  2  2  0
  1  3  1  0
  3  4  1  0
  4  5  2  0
  3  6  1  0
  6  7  2  0
  2  8  1  0
  4  9  1  0
  2 10  1  0
  5 10  1  0
  7 11  1  0
  9 11  2  0
 11 12  1  0
M  END
$$$$
