
     RDKit          3D

 12 13  0  0  0  0  0  0  0  0999 V2000
  140.3036  150.2148  139.4783 Cl  0  0  0  0  0  0  0  0  0  0  0  0
  138.6783  150.1860  140.5319 C   0  0  0  0  0  0  0  0  0  0  0  0
  137.6385  149.3831  140.0945 C   0  0  0  0  0  0  0  0  0  0  0  0
  136.4392  149.4569  140.8209 C   0  0  0  0  0  0  0  0  0  0  0  0
  138.9819  150.6978  141.6811 C   0  0  0  0  0  0  0  0  0  0  0  0
  136.5079  150.3497  141.8163 C   0  0  0  0  0  0  0  0  0  0  0  0
  135.2761  150.6086  142.7157 C   0  0  0  0  0  0  0  0  0  0  0  0
  135.7352  151.2618  143.9974 C   0  0  0  0  0  0  0  0  0  0  0  0
  136.5566  152.2474  144.0879 C   0  0  0  0  0  0  0  0  0  0  0  0
  136.8077  153.0158  145.3189 C   0  0  0  0  0  0  0  0  0  0  0  0
  137.8587  150.9823  142.3813 C   0  0  0  0  0  0  0  0  0  0  0  0
  138.0687  151.6978  143.5554 C   0  0  0  0  0  0  0  0  0  0  0  0
  1  2  1  0
  2  3  2  0
  3  4  1  0
  2  5  1  0
  4  6  2  0
  6  7  1  0
  7  8  1  0
  8  9  2  0
  9 10  1  0
  5 11  2  0
  6 11  1  0
  9 12  1  0
 11 12  1  0
M  END
$$$$
