
     RDKit          3D

 12 13  0  0  0  0  0  0  0  0999 V2000
  139.0004  149.7631  140.3649 C   0  0  0  0  0  0  0  0  0  0  0  0
  139.7623  150.8543  140.7370 C   0  0  0  0  0  0  0  0  0  0  0  0
  139.2605  149.1459  139.1745 C   0  0  0  0  0  0  0  0  0  0  0  0
  139.5454  151.5142  142.0095 C   0  0  0  0  0  0  0  0  0  0  0  0
  138.4600  150.9915  142.6960 C   0  0  0  0  0  0  0  0  0  0  0  0
  137.8908  149.5533  141.2205 C   0  0  0  0  0  0  0  0  0  0  0  0
  138.2361  151.6729  144.1109 C   0  0  0  0  0  0  0  0  0  0  0  0
  136.9034  151.6291  144.5714 C   0  0  0  0  0  0  0  0  0  0  0  0
  135.9882  150.9839  143.8409 C   0  0  0  0  0  0  0  0  0  0  0  0
  137.5384  150.1688  142.3210 C   0  0  0  0  0  0  0  0  0  0  0  0
  136.3869  150.1471  142.8959 C   0  0  0  0  0  0  0  0  0  0  0  0
  136.6807  152.5410  145.9474 C   0  0  0  0  0  0  0  0  0  0  0  0
  1  2  2  0
  1  3  1  0
  2  4  1  0
  4  5  2  0
  1  6  1  0
  5  7  1  0
  7  8  2  0
  8  9  1  0
  5 10  1  0
  6 10  2  0
  9 11  2  0
 10 11  1  0
  8 12  1  0
M  END
$$$$
