
     RDKit          3D

 12 13  0  0  0  0  0  0  0  0999 V2000
  140.3036  150.2148  139.4783 Cl  0  0  0  0  0  0  0  0  0  0  0  0
  138.6783  150.1860  140.5319 C   0  0  0  0  0  0  0  0  0  0  0  0
  137.6385  149.3831  140.0945 C   0  0  0  0  0  0  0  0  0  0  0  0
  139.2417  150.7158  141.5756 C   0  0  0  0  0  0  0  0  0  0  0  0
  138.3592  151.0505  142.3777 C   0  0  0  0  0  0  0  0  0  0  0  0
  136.5124  149.6312  140.9991 C   0  0  0  0  0  0  0  0  0  0  0  0
  135.2128  149.3326  140.8083 C   0  0  0  0  0  0  0  0  0  0  0  0
  136.9238  150.5296  142.3413 C   0  0  0  0  0  0  0  0  0  0  0  0
  138.1720  151.6081  143.9231 C   0  0  0  0  0  0  0  0  0  0  0  0
  137.1873  151.4526  144.6734 C   0  0  0  0  0  0  0  0  0  0  0  0
  136.4033  150.4975  144.5871 C   0  0  0  0  0  0  0  0  0  0  0  0
  135.9730  150.1589  143.2599 C   0  0  0  0  0  0  0  0  0  0  0  0
  1  2  1  0
  2  3  1  0
  2  4  2  0
  4  5  1  0
  3  6  2  0
  6  7  1  0
  5  8  2  0
  6  8  1  0
  5  9  1  0
  9 10  1  0
 10 11  2  0
  8 12  1  0
 11 12  1  0
M  END
$$$$
