
     RDKit          3D

 12 13  0  0  0  0  0  0  0  0999 V2000
  138.7090  151.1469  142.6269 C   0  0  0  0  0  0  0  0  0  0  0  0
  138.5260  151.9370  143.5114 C   0  0  0  0  0  0  0  0  0  0  0  0
  137.3819  151.6579  144.3963 C   0  0  0  0  0  0  0  0  0  0  0  0
  139.7051  151.1184  141.6077 C   0  0  0  0  0  0  0  0  0  0  0  0
  136.7557  152.5772  145.3074 C   0  0  0  0  0  0  0  0  0  0  0  0
  139.6288  150.4580  140.3315 C   0  0  0  0  0  0  0  0  0  0  0  0
  138.4571  149.6004  140.4454 C   0  0  0  0  0  0  0  0  0  0  0  0
  135.4568  152.3937  145.7654 C   0  0  0  0  0  0  0  0  0  0  0  0
  137.5807  149.8923  141.3497 C   0  0  0  0  0  0  0  0  0  0  0  0
  140.5769  150.5648  139.3519 C   0  0  0  0  0  0  0  0  0  0  0  0
  137.6871  150.4814  142.4501 C   0  0  0  0  0  0  0  0  0  0  0  0
  136.6902  150.4341  144.0126 C   0  0  0  0  0  0  0  0  0  0  0  0
  1  2  1  0
  2  3  2  0
  1  4  1  0
  3  5  1  0
  4  6  2  0
  6  7  1  0
  5  8  1  0
  7  9  2  0
  6 10  1  0
  1 11  2  0
  9 11  1  0
  3 12  1  0
 11 12  1  0
M  END
$$$$
