
     RDKit          3D

 12 13  0  0  0  0  0  0  0  0999 V2000
  139.5348  150.8906  142.2305 C   0  0  0  0  0  0  0  0  0  0  0  0
  139.0139  150.3976  141.0574 C   0  0  0  0  0  0  0  0  0  0  0  0
  138.6965  150.9489  143.4028 C   0  0  0  0  0  0  0  0  0  0  0  0
  137.7130  149.9460  141.0427 C   0  0  0  0  0  0  0  0  0  0  0  0
  137.5183  150.9374  143.4785 C   0  0  0  0  0  0  0  0  0  0  0  0
  136.6733  151.1274  144.6812 C   0  0  0  0  0  0  0  0  0  0  0  0
  139.8472  150.3901  139.8637 C   0  0  0  0  0  0  0  0  0  0  0  0
  136.7200  150.2063  141.8846 C   0  0  0  0  0  0  0  0  0  0  0  0
  136.4930  150.6203  143.0434 C   0  0  0  0  0  0  0  0  0  0  0  0
  135.4267  151.4029  144.6116 C   0  0  0  0  0  0  0  0  0  0  0  0
  135.1366  150.8679  143.3605 C   0  0  0  0  0  0  0  0  0  0  0  0
  139.3586  150.4290  138.6493 C   0  0  0  0  0  0  0  0  0  0  0  0
  1  2  2  0
  1  3  1  0
  2  4  1  0
  3  5  2  0
  5  6  1  0
  2  7  1  0
  4  8  2  0
  5  9  1  0
  8  9  1  0
  6 10  2  0
  9 11  2  0
 10 11  1  0
  7 12  2  0
M  END
$$$$
