
     RDKit          3D

  9  9  0  0  0  0  0  0  0  0999 V2000
  139.2621  151.0929  142.4047 C   0  0  0  0  0  0  0  0  0  0  0  0
  138.8616  152.1308  142.9039 C   0  0  0  0  0  0  0  0  0  0  0  0
  137.7831  151.8921  143.8937 C   0  0  0  0  0  0  0  0  0  0  0  0
  140.0672  150.9660  141.1527 C   0  0  0  0  0  0  0  0  0  0  0  0
  137.3613  150.4914  143.9587 C   0  0  0  0  0  0  0  0  0  0  0  0
  138.6092  149.8559  142.5419 C   0  0  0  0  0  0  0  0  0  0  0  0
  136.3305  150.3447  145.1100 C   0  0  0  0  0  0  0  0  0  0  0  0
  137.7780  149.4739  143.3592 N   0  0  0  0  0  0  0  0  0  0  0  0
  140.4858  150.6958  139.9798 C   0  0  0  0  0  0  0  0  0  0  0  0
  1  2  1  0
  2  3  2  0
  1  4  1  0
  3  5  1  0
  1  6  2  0
  5  7  1  0
  5  8  2  0
  6  8  1  0
  4  9  3  0
M  END
$$$$
