
     RDKit          3D

 12 13  0  0  0  0  0  0  0  0999 V2000
  139.3427  149.9935  140.5880 C   0  0  0  0  0  0  0  0  0  0  0  0
  138.9528  149.9224  139.3656 C   0  0  0  0  0  0  0  0  0  0  0  0
  138.6122  150.1102  141.6416 C   0  0  0  0  0  0  0  0  0  0  0  0
  137.1910  149.8704  141.8331 C   0  0  0  0  0  0  0  0  0  0  0  0
  136.5134  149.7658  140.5812 C   0  0  0  0  0  0  0  0  0  0  0  0
  139.1788  150.4012  143.1353 C   0  0  0  0  0  0  0  0  0  0  0  0
  138.2249  150.9731  144.0852 C   0  0  0  0  0  0  0  0  0  0  0  0
  136.4855  150.1086  143.0259 C   0  0  0  0  0  0  0  0  0  0  0  0
  136.9884  150.6188  144.0665 C   0  0  0  0  0  0  0  0  0  0  0  0
  137.3213  149.7147  139.3327 C   0  0  0  0  0  0  0  0  0  0  0  0
  136.1910  151.0516  145.2324 C   0  0  0  0  0  0  0  0  0  0  0  0
  136.4660  151.3288  146.4120 C   0  0  0  0  0  0  0  0  0  0  0  0
  1  2  2  0
  1  3  1  0
  3  4  1  0
  4  5  2  0
  3  6  1  0
  6  7  2  0
  4  8  1  0
  7  9  1  0
  8  9  2  0
  2 10  1  0
  5 10  1  0
  9 11  1  0
 11 12  2  0
M  END
$$$$
