
     RDKit          3D

 12 13  0  0  0  0  0  0  0  0999 V2000
  140.3036  150.2148  139.4783 Cl  0  0  0  0  0  0  0  0  0  0  0  0
  138.6783  150.1860  140.5319 C   0  0  0  0  0  0  0  0  0  0  0  0
  137.6385  149.3831  140.0945 C   0  0  0  0  0  0  0  0  0  0  0  0
  138.7505  150.9487  141.6715 C   0  0  0  0  0  0  0  0  0  0  0  0
  136.5606  149.6034  140.7973 C   0  0  0  0  0  0  0  0  0  0  0  0
  135.2960  149.0163  140.1852 C   0  0  0  0  0  0  0  0  0  0  0  0
  136.5422  150.4642  141.8563 C   0  0  0  0  0  0  0  0  0  0  0  0
  135.3353  150.6737  142.7430 C   0  0  0  0  0  0  0  0  0  0  0  0
  135.7908  151.4836  143.9525 C   0  0  0  0  0  0  0  0  0  0  0  0
  137.8598  151.0634  142.3472 C   0  0  0  0  0  0  0  0  0  0  0  0
  137.1326  151.5837  144.2484 C   0  0  0  0  0  0  0  0  0  0  0  0
  137.8780  151.7265  143.4741 N   0  0  0  0  0  0  0  0  0  0  0  0
  1  2  1  0
  2  3  2  0
  2  4  1  0
  3  5  1  0
  5  6  1  0
  5  7  2  0
  7  8  1  0
  8  9  1  0
  4 10  2  0
  7 10  1  0
  9 11  1  0
 10 12  1  0
 11 12  2  0
M  END
$$$$
