
     RDKit          3D

 13 14  0  0  0  0  0  0  0  0999 V2000
  140.3036  150.2148  139.4783 Cl  0  0  0  0  0  0  0  0  0  0  0  0
  138.6783  150.1860  140.5319 C   0  0  0  0  0  0  0  0  0  0  0  0
  137.6385  149.3831  140.0945 C   0  0  0  0  0  0  0  0  0  0  0  0
  136.4392  149.4569  140.8209 C   0  0  0  0  0  0  0  0  0  0  0  0
  138.9819  150.6978  141.6811 C   0  0  0  0  0  0  0  0  0  0  0  0
  136.5079  150.3497  141.8163 C   0  0  0  0  0  0  0  0  0  0  0  0
  135.2761  150.6086  142.7157 C   0  0  0  0  0  0  0  0  0  0  0  0
  135.7352  151.2618  143.9974 C   0  0  0  0  0  0  0  0  0  0  0  0
  136.5566  152.2474  144.0879 C   0  0  0  0  0  0  0  0  0  0  0  0
  136.8077  153.0158  145.3189 C   0  0  0  0  0  0  0  0  0  0  0  0
  135.9607  152.6751  146.4650 C   0  0  0  0  0  0  0  0  0  0  0  0
  137.7832  151.0049  142.3574 C   0  0  0  0  0  0  0  0  0  0  0  0
  137.7560  152.1591  143.2641 C   0  0  0  0  0  0  0  0  0  0  0  0
  1  2  1  0
  2  3  2  0
  3  4  1  0
  2  5  1  0
  4  6  2  0
  6  7  1  0
  7  8  1  0
  8  9  2  0
  9 10  1  0
 10 11  1  0
  5 12  2  0
  6 12  1  0
  9 13  1  0
 12 13  1  0
M  END
$$$$
