
     RDKit          3D

 13 14  0  0  0  0  0  0  0  0999 V2000
  139.5348  150.8906  142.2305 C   0  0  0  0  0  0  0  0  0  0  0  0
  139.0139  150.3976  141.0574 C   0  0  0  0  0  0  0  0  0  0  0  0
  138.6965  150.9489  143.4028 C   0  0  0  0  0  0  0  0  0  0  0  0
  137.7130  149.9460  141.0427 C   0  0  0  0  0  0  0  0  0  0  0  0
  137.5183  150.9374  143.4785 C   0  0  0  0  0  0  0  0  0  0  0  0
  136.6733  151.1274  144.6812 C   0  0  0  0  0  0  0  0  0  0  0  0
  139.8472  150.3901  139.8637 C   0  0  0  0  0  0  0  0  0  0  0  0
  136.7200  150.2063  141.8846 C   0  0  0  0  0  0  0  0  0  0  0  0
  141.2316  150.2438  139.9961 C   0  0  0  0  0  0  0  0  0  0  0  0
  139.3299  150.5323  138.8385 O   0  0  0  0  0  0  0  0  0  0  0  0
  136.5906  150.6919  143.0970 C   0  0  0  0  0  0  0  0  0  0  0  0
  135.3486  151.5434  144.9697 C   0  0  0  0  0  0  0  0  0  0  0  0
  135.1921  152.1203  146.2943 C   0  0  0  0  0  0  0  0  0  0  0  0
  1  2  2  0
  1  3  1  0
  2  4  1  0
  3  5  2  0
  5  6  1  0
  2  7  1  0
  4  8  2  0
  7  9  1  0
  7 10  2  0
  5 11  1  0
  6 11  1  0
  8 11  1  0
  6 12  1  0
 12 13  1  0
M  END
$$$$
