
     RDKit          3D

 13 14  0  0  0  0  0  0  0  0999 V2000
  139.3427  149.9935  140.5880 C   0  0  0  0  0  0  0  0  0  0  0  0
  138.9528  149.9224  139.3656 C   0  0  0  0  0  0  0  0  0  0  0  0
  138.6122  150.1102  141.6416 C   0  0  0  0  0  0  0  0  0  0  0  0
  137.1910  149.8704  141.8331 C   0  0  0  0  0  0  0  0  0  0  0  0
  136.5134  149.7658  140.5812 C   0  0  0  0  0  0  0  0  0  0  0  0
  139.1788  150.4012  143.1353 C   0  0  0  0  0  0  0  0  0  0  0  0
  138.2249  150.9731  144.0852 C   0  0  0  0  0  0  0  0  0  0  0  0
  139.6664  149.8788  138.1669 C   0  0  0  0  0  0  0  0  0  0  0  0
  136.4809  150.1375  143.0193 C   0  0  0  0  0  0  0  0  0  0  0  0
  136.9815  150.6515  144.0754 C   0  0  0  0  0  0  0  0  0  0  0  0
  136.1796  151.0744  145.2326 C   0  0  0  0  0  0  0  0  0  0  0  0
  137.4424  149.7155  139.3486 C   0  0  0  0  0  0  0  0  0  0  0  0
  136.4545  151.2961  146.4233 O   0  0  0  0  0  0  0  0  0  0  0  0
  1  2  2  0
  1  3  1  0
  3  4  1  0
  4  5  2  0
  3  6  1  0
  6  7  2  0
  2  8  1  0
  4  9  1  0
  7 10  1  0
  9 10  2  0
 10 11  1  0
  2 12  1  0
  5 12  1  0
 11 13  1  0
M  END
$$$$
