
     RDKit          3D

  9  9  0  0  0  0  0  0  0  0999 V2000
  140.3036  150.2148  139.4783 Cl  0  0  0  0  0  0  0  0  0  0  0  0
  138.6783  150.1860  140.5319 C   0  0  0  0  0  0  0  0  0  0  0  0
  137.6385  149.3831  140.0945 C   0  0  0  0  0  0  0  0  0  0  0  0
  138.7505  150.9487  141.6715 C   0  0  0  0  0  0  0  0  0  0  0  0
  137.7560  150.8742  142.6261 C   0  0  0  0  0  0  0  0  0  0  0  0
  136.6347  150.0387  142.2615 C   0  0  0  0  0  0  0  0  0  0  0  0
  137.5260  148.8217  138.8936 C   0  0  0  0  0  0  0  0  0  0  0  0
  136.3972  149.4966  141.0089 C   0  0  0  0  0  0  0  0  0  0  0  0
  137.8600  151.5623  144.0629 Cl  0  0  0  0  0  0  0  0  0  0  0  0
  1  2  1  0
  2  3  2  0
  2  4  1  0
  4  5  2  0
  5  6  1  0
  3  7  1  0
  3  8  1  0
  6  8  2  0
  5  9  1  0
M  END
$$$$
