
     RDKit          3D

 13 13  0  0  0  0  0  0  0  0999 V2000
  138.9705  151.3124  142.5681 C   0  0  0  0  0  0  0  0  0  0  0  0
  138.6057  152.0894  143.2653 C   0  0  0  0  0  0  0  0  0  0  0  0
  137.6600  151.8349  144.0467 C   0  0  0  0  0  0  0  0  0  0  0  0
  139.9939  151.3511  141.4314 C   0  0  0  0  0  0  0  0  0  0  0  0
  137.4795  150.6675  144.8972 C   0  0  0  0  0  0  0  0  0  0  0  0
  139.6568  150.7243  140.2644 C   0  0  0  0  0  0  0  0  0  0  0  0
  138.5004  150.0428  140.1974 C   0  0  0  0  0  0  0  0  0  0  0  0
  137.5686  149.8234  141.3807 C   0  0  0  0  0  0  0  0  0  0  0  0
  140.6055  150.7021  139.1138 C   0  0  0  0  0  0  0  0  0  0  0  0
  138.2177  149.5966  138.9131 C   0  0  0  0  0  0  0  0  0  0  0  0
  138.0504  150.1583  142.2716 C   0  0  0  0  0  0  0  0  0  0  0  0
  136.9573  149.0581  138.6699 C   0  0  0  0  0  0  0  0  0  0  0  0
  136.8005  150.6049  146.1048 C   0  0  0  0  0  0  0  0  0  0  0  0
  1  2  2  3
  2  3  1  0
  1  4  1  0
  3  5  2  3
  4  6  2  0
  6  7  1  0
  7  8  1  0
  6  9  1  0
  7 10  2  3
  1 11  1  0
  8 11  2  0
 10 12  1  0
  5 13  1  0
M  END
$$$$
