
     RDKit          3D

 13 14  0  0  0  0  0  0  0  0999 V2000
  138.7090  151.1469  142.6269 C   0  0  0  0  0  0  0  0  0  0  0  0
  138.5260  151.9370  143.5114 C   0  0  0  0  0  0  0  0  0  0  0  0
  137.3819  151.6579  144.3963 C   0  0  0  0  0  0  0  0  0  0  0  0
  139.7051  151.1184  141.6077 C   0  0  0  0  0  0  0  0  0  0  0  0
  139.4637  150.8262  140.3138 C   0  0  0  0  0  0  0  0  0  0  0  0
  138.1443  150.1615  140.2328 C   0  0  0  0  0  0  0  0  0  0  0  0
  137.8478  149.6487  138.8336 C   0  0  0  0  0  0  0  0  0  0  0  0
  137.2643  149.9895  141.3145 C   0  0  0  0  0  0  0  0  0  0  0  0
  135.9218  149.4173  140.9862 C   0  0  0  0  0  0  0  0  0  0  0  0
  137.6110  150.4170  142.5074 C   0  0  0  0  0  0  0  0  0  0  0  0
  137.0843  152.1599  145.6485 C   0  0  0  0  0  0  0  0  0  0  0  0
  135.8265  152.8752  145.7731 C   0  0  0  0  0  0  0  0  0  0  0  0
  136.7917  150.5354  143.6156 N   0  0  0  0  0  0  0  0  0  0  0  0
  1  2  1  0
  2  3  2  0
  1  4  1  0
  4  5  2  0
  5  6  1  0
  6  7  1  0
  6  8  2  0
  8  9  1  0
  1 10  2  0
  8 10  1  0
  3 11  1  0
 11 12  1  0
  3 13  1  0
 10 13  1  0
M  END
$$$$
