
     RDKit          3D

  9  9  0  0  0  0  0  0  0  0999 V2000
  139.2621  151.0929  142.4047 C   0  0  0  0  0  0  0  0  0  0  0  0
  138.8616  152.1308  142.9039 C   0  0  0  0  0  0  0  0  0  0  0  0
  137.7831  151.8921  143.8937 C   0  0  0  0  0  0  0  0  0  0  0  0
  137.3591  150.5405  144.0623 C   0  0  0  0  0  0  0  0  0  0  0  0
  136.3238  150.4648  145.1225 C   0  0  0  0  0  0  0  0  0  0  0  0
  139.7269  151.0837  140.8943 C   0  0  0  0  0  0  0  0  0  0  0  0
  135.7744  151.4810  145.5064 C   0  0  0  0  0  0  0  0  0  0  0  0
  137.0288  152.8283  144.5638 C   0  0  0  0  0  0  0  0  0  0  0  0
  136.0907  152.7056  145.4540 C   0  0  0  0  0  0  0  0  0  0  0  0
  1  2  1  0
  2  3  2  3
  3  4  1  0
  4  5  2  0
  1  6  1  0
  5  7  1  0
  3  8  1  0
  7  9  2  0
  8  9  2  0
M  END
$$$$
