
     RDKit          3D

 13 14  0  0  0  0  0  0  0  0999 V2000
  138.7090  151.1469  142.6269 C   0  0  0  0  0  0  0  0  0  0  0  0
  138.5260  151.9370  143.5114 C   0  0  0  0  0  0  0  0  0  0  0  0
  137.3819  151.6579  144.3963 C   0  0  0  0  0  0  0  0  0  0  0  0
  139.7051  151.1184  141.6077 C   0  0  0  0  0  0  0  0  0  0  0  0
  136.7557  152.5772  145.3074 C   0  0  0  0  0  0  0  0  0  0  0  0
  139.6288  150.4580  140.3315 C   0  0  0  0  0  0  0  0  0  0  0  0
  138.4571  149.6004  140.4454 C   0  0  0  0  0  0  0  0  0  0  0  0
  137.8336  150.0445  142.3293 C   0  0  0  0  0  0  0  0  0  0  0  0
  140.4666  150.5862  139.2787 C   0  0  0  0  0  0  0  0  0  0  0  0
  136.9038  150.0724  143.5173 C   0  0  0  0  0  0  0  0  0  0  0  0
  136.6192  150.5803  144.4277 C   0  0  0  0  0  0  0  0  0  0  0  0
  137.6524  149.3712  141.3225 N   0  0  0  0  0  0  0  0  0  0  0  0
  135.6240  152.8653  145.9380 C   0  0  0  0  0  0  0  0  0  0  0  0
  1  2  1  0
  2  3  2  0
  1  4  1  0
  3  5  1  0
  4  6  2  0
  6  7  1  0
  1  8  2  0
  6  9  1  0
  8 10  1  0
  3 11  1  0
 10 11  2  0
  7 12  2  0
  8 12  1  0
  5 13  2  0
M  END
$$$$
