
     RDKit          3D

 13 14  0  0  0  0  0  0  0  0999 V2000
  138.9705  151.3124  142.5681 C   0  0  0  0  0  0  0  0  0  0  0  0
  138.6057  152.0894  143.2653 C   0  0  0  0  0  0  0  0  0  0  0  0
  137.5209  151.8314  144.2019 C   0  0  0  0  0  0  0  0  0  0  0  0
  136.5811  152.7823  144.6505 C   0  0  0  0  0  0  0  0  0  0  0  0
  139.7956  151.3595  141.3741 C   0  0  0  0  0  0  0  0  0  0  0  0
  135.9804  152.8193  145.6528 C   0  0  0  0  0  0  0  0  0  0  0  0
  139.5360  150.6466  140.2953 C   0  0  0  0  0  0  0  0  0  0  0  0
  136.0633  151.5366  146.3570 C   0  0  0  0  0  0  0  0  0  0  0  0
  138.3949  149.8648  140.3621 C   0  0  0  0  0  0  0  0  0  0  0  0
  138.2862  150.0671  142.3940 C   0  0  0  0  0  0  0  0  0  0  0  0
  137.3447  150.5450  144.4815 C   0  0  0  0  0  0  0  0  0  0  0  0
  137.8701  149.4608  141.3629 C   0  0  0  0  0  0  0  0  0  0  0  0
  136.4770  150.3418  145.8414 C   0  0  0  0  0  0  0  0  0  0  0  0
  1  2  2  3
  2  3  1  0
  3  4  1  0
  1  5  1  0
  4  6  2  0
  5  7  2  0
  6  8  1  0
  7  9  1  0
  1 10  1  0
  3 11  2  0
  9 12  1  0
 10 12  1  0
  8 13  2  0
 11 13  1  0
M  END
$$$$
