
     RDKit          3D

 13 14  0  0  0  0  0  0  0  0999 V2000
  140.3036  150.2148  139.4783 Cl  0  0  0  0  0  0  0  0  0  0  0  0
  138.6783  150.1860  140.5319 C   0  0  0  0  0  0  0  0  0  0  0  0
  137.6385  149.3831  140.0945 C   0  0  0  0  0  0  0  0  0  0  0  0
  138.8668  150.7183  141.4516 C   0  0  0  0  0  0  0  0  0  0  0  0
  138.3194  150.9395  142.2987 C   0  0  0  0  0  0  0  0  0  0  0  0
  136.9007  150.1342  142.2766 C   0  0  0  0  0  0  0  0  0  0  0  0
  136.0346  150.4104  143.3393 C   0  0  0  0  0  0  0  0  0  0  0  0
  137.4083  148.7821  138.9116 C   0  0  0  0  0  0  0  0  0  0  0  0
  136.4724  151.2971  144.2937 C   0  0  0  0  0  0  0  0  0  0  0  0
  136.5427  149.5797  141.0185 C   0  0  0  0  0  0  0  0  0  0  0  0
  136.5121  151.0865  145.5702 C   0  0  0  0  0  0  0  0  0  0  0  0
  138.3620  151.5932  143.7016 C   0  0  0  0  0  0  0  0  0  0  0  0
  137.3390  152.0346  144.2101 C   0  0  0  0  0  0  0  0  0  0  0  0
  1  2  1  0
  2  3  2  0
  2  4  1  0
  4  5  2  0
  5  6  1  0
  6  7  1  0
  3  8  1  0
  7  9  1  0
  3 10  1  0
  6 10  2  0
  9 11  1  0
  5 12  1  0
  9 13  1  0
 12 13  1  0
M  END
$$$$
