
     RDKit          3D

 13 14  0  0  0  0  0  0  0  0999 V2000
  140.3036  150.2148  139.4783 Cl  0  0  0  0  0  0  0  0  0  0  0  0
  138.6783  150.1860  140.5319 C   0  0  0  0  0  0  0  0  0  0  0  0
  137.6385  149.3831  140.0945 C   0  0  0  0  0  0  0  0  0  0  0  0
  138.8668  150.7183  141.4516 C   0  0  0  0  0  0  0  0  0  0  0  0
  138.3194  150.9395  142.2987 C   0  0  0  0  0  0  0  0  0  0  0  0
  136.9007  150.1342  142.2766 C   0  0  0  0  0  0  0  0  0  0  0  0
  136.0346  150.4104  143.3393 C   0  0  0  0  0  0  0  0  0  0  0  0
  137.4083  148.7821  138.9116 C   0  0  0  0  0  0  0  0  0  0  0  0
  136.4724  151.2971  144.2937 C   0  0  0  0  0  0  0  0  0  0  0  0
  137.7160  152.0312  144.0516 C   0  0  0  0  0  0  0  0  0  0  0  0
  136.6135  149.5774  141.1671 C   0  0  0  0  0  0  0  0  0  0  0  0
  138.7209  151.6449  143.4574 C   0  0  0  0  0  0  0  0  0  0  0  0
  135.8004  152.0293  145.2189 O   0  0  0  0  0  0  0  0  0  0  0  0
  1  2  1  0
  2  3  2  0
  2  4  1  0
  4  5  2  0
  5  6  1  0
  6  7  1  0
  3  8  1  0
  7  9  1  0
  9 10  1  0
  3 11  1  0
  6 11  2  0
  5 12  1  0
 10 12  2  0
  9 13  1  0
M  END
$$$$
