
     RDKit          3D

 13 14  0  0  0  0  0  0  0  0999 V2000
  138.7090  151.1469  142.6269 C   0  0  0  0  0  0  0  0  0  0  0  0
  138.5260  151.9370  143.5114 C   0  0  0  0  0  0  0  0  0  0  0  0
  137.3819  151.6579  144.3963 C   0  0  0  0  0  0  0  0  0  0  0  0
  139.7051  151.1184  141.6077 C   0  0  0  0  0  0  0  0  0  0  0  0
  136.7072  150.4347  144.0265 C   0  0  0  0  0  0  0  0  0  0  0  0
  139.4496  150.8400  140.3164 C   0  0  0  0  0  0  0  0  0  0  0  0
  138.1688  150.1903  140.1998 C   0  0  0  0  0  0  0  0  0  0  0  0
  137.8593  149.7371  138.7840 C   0  0  0  0  0  0  0  0  0  0  0  0
  137.7643  150.0553  142.2577 C   0  0  0  0  0  0  0  0  0  0  0  0
  137.3522  149.7392  141.1906 C   0  0  0  0  0  0  0  0  0  0  0  0
  135.8001  150.1296  145.2186 C   0  0  0  0  0  0  0  0  0  0  0  0
  137.2775  149.5369  143.2073 N   0  0  0  0  0  0  0  0  0  0  0  0
  134.7303  151.1775  145.3215 C   0  0  0  0  0  0  0  0  0  0  0  0
  1  2  1  0
  2  3  2  0
  1  4  1  0
  3  5  1  0
  4  6  2  0
  6  7  1  0
  7  8  1  0
  1  9  2  0
  7 10  2  0
  9 10  1  0
  5 11  1  0
  5 12  1  0
  9 12  1  0
 11 13  1  0
M  END
$$$$
