
     RDKit          3D

 13 14  0  0  0  0  0  0  0  0999 V2000
  138.7090  151.1469  142.6269 C   0  0  0  0  0  0  0  0  0  0  0  0
  138.5260  151.9370  143.5114 C   0  0  0  0  0  0  0  0  0  0  0  0
  137.3819  151.6579  144.3963 C   0  0  0  0  0  0  0  0  0  0  0  0
  139.7051  151.1184  141.6077 C   0  0  0  0  0  0  0  0  0  0  0  0
  136.7557  152.5772  145.3074 C   0  0  0  0  0  0  0  0  0  0  0  0
  139.6288  150.4580  140.3315 C   0  0  0  0  0  0  0  0  0  0  0  0
  138.4571  149.6004  140.4454 C   0  0  0  0  0  0  0  0  0  0  0  0
  135.4568  152.3937  145.7654 C   0  0  0  0  0  0  0  0  0  0  0  0
  137.5807  149.8923  141.3497 C   0  0  0  0  0  0  0  0  0  0  0  0
  136.1161  149.2357  141.0244 C   0  0  0  0  0  0  0  0  0  0  0  0
  137.5797  150.4411  142.2334 C   0  0  0  0  0  0  0  0  0  0  0  0
  136.6622  150.6430  144.5260 C   0  0  0  0  0  0  0  0  0  0  0  0
  136.1955  150.5844  143.3610 C   0  0  0  0  0  0  0  0  0  0  0  0
  1  2  1  0
  2  3  2  0
  1  4  1  0
  3  5  1  0
  4  6  2  0
  6  7  1  0
  5  8  1  0
  7  9  2  0
  9 10  1  0
  1 11  2  0
  9 11  1  0
  3 12  1  0
 11 13  1  0
 12 13  1  0
M  END
$$$$
