
     RDKit          3D

 14 15  0  0  0  0  0  0  0  0999 V2000
  139.5348  150.8906  142.2305 C   0  0  0  0  0  0  0  0  0  0  0  0
  139.0139  150.3976  141.0574 C   0  0  0  0  0  0  0  0  0  0  0  0
  138.6965  150.9489  143.4028 C   0  0  0  0  0  0  0  0  0  0  0  0
  137.7130  149.9460  141.0427 C   0  0  0  0  0  0  0  0  0  0  0  0
  137.5183  150.9374  143.4785 C   0  0  0  0  0  0  0  0  0  0  0  0
  136.6733  151.1274  144.6812 C   0  0  0  0  0  0  0  0  0  0  0  0
  139.8472  150.3901  139.8637 C   0  0  0  0  0  0  0  0  0  0  0  0
  136.7200  150.2063  141.8846 C   0  0  0  0  0  0  0  0  0  0  0  0
  139.3494  150.4799  138.6289 C   0  0  0  0  0  0  0  0  0  0  0  0
  136.4777  150.6313  143.0502 C   0  0  0  0  0  0  0  0  0  0  0  0
  135.4300  151.4343  144.6199 C   0  0  0  0  0  0  0  0  0  0  0  0
  135.1311  150.9161  143.4090 N   0  0  0  0  0  0  0  0  0  0  0  0
  141.0656  150.6369  140.2158 C   0  0  0  0  0  0  0  0  0  0  0  0
  134.7046  151.9400  145.5526 N   0  0  0  0  0  0  0  0  0  0  0  0
  1  2  2  0
  1  3  1  0
  2  4  1  0
  3  5  2  0
  5  6  1  0
  2  7  1  0
  4  8  2  0
  7  9  1  0
  5 10  1  0
  8 10  1  0
  6 11  1  0
 10 12  2  0
 11 12  1  0
  7 13  2  0
 11 14  1  0
M  END
$$$$
