
     RDKit          3D

 14 15  0  0  0  0  0  0  0  0999 V2000
  139.3427  149.9935  140.5880 C   0  0  0  0  0  0  0  0  0  0  0  0
  138.9528  149.9224  139.3656 C   0  0  0  0  0  0  0  0  0  0  0  0
  138.6122  150.1102  141.6416 C   0  0  0  0  0  0  0  0  0  0  0  0
  137.1910  149.8704  141.8331 C   0  0  0  0  0  0  0  0  0  0  0  0
  136.5134  149.7658  140.5812 C   0  0  0  0  0  0  0  0  0  0  0  0
  139.1788  150.4012  143.1353 C   0  0  0  0  0  0  0  0  0  0  0  0
  138.2249  150.9731  144.0852 C   0  0  0  0  0  0  0  0  0  0  0  0
  139.6664  149.8788  138.1669 C   0  0  0  0  0  0  0  0  0  0  0  0
  136.4809  150.1375  143.0193 C   0  0  0  0  0  0  0  0  0  0  0  0
  136.9815  150.6515  144.0754 C   0  0  0  0  0  0  0  0  0  0  0  0
  135.1633  149.5858  140.4587 C   0  0  0  0  0  0  0  0  0  0  0  0
  137.3706  149.7074  139.3219 C   0  0  0  0  0  0  0  0  0  0  0  0
  136.1142  151.1779  145.3183 C   0  0  0  0  0  0  0  0  0  0  0  0
  135.1421  152.0647  144.9916 C   0  0  0  0  0  0  0  0  0  0  0  0
  1  2  2  0
  1  3  1  0
  3  4  1  0
  4  5  2  0
  3  6  1  0
  6  7  2  0
  2  8  1  0
  4  9  1  0
  7 10  1  0
  9 10  2  0
  5 11  1  0
  2 12  1  0
  5 12  1  0
 10 13  1  0
 13 14  1  0
M  END
$$$$
