
     RDKit          3D

 14 15  0  0  0  0  0  0  0  0999 V2000
  140.3036  150.2148  139.4783 Cl  0  0  0  0  0  0  0  0  0  0  0  0
  138.6783  150.1860  140.5319 C   0  0  0  0  0  0  0  0  0  0  0  0
  137.6385  149.3831  140.0945 C   0  0  0  0  0  0  0  0  0  0  0  0
  138.8668  150.7183  141.4516 C   0  0  0  0  0  0  0  0  0  0  0  0
  138.3194  150.9395  142.2987 C   0  0  0  0  0  0  0  0  0  0  0  0
  136.9007  150.1342  142.2766 C   0  0  0  0  0  0  0  0  0  0  0  0
  136.0346  150.4104  143.3393 C   0  0  0  0  0  0  0  0  0  0  0  0
  137.4083  148.7821  138.9116 C   0  0  0  0  0  0  0  0  0  0  0  0
  136.5594  149.5457  141.0880 C   0  0  0  0  0  0  0  0  0  0  0  0
  138.4804  151.6715  143.7636 C   0  0  0  0  0  0  0  0  0  0  0  0
  137.3661  151.8338  144.4131 C   0  0  0  0  0  0  0  0  0  0  0  0
  136.2429  151.1632  144.3879 C   0  0  0  0  0  0  0  0  0  0  0  0
  135.3303  151.6009  145.4915 C   0  0  0  0  0  0  0  0  0  0  0  0
  137.2476  152.8360  145.3672 O   0  0  0  0  0  0  0  0  0  0  0  0
  1  2  1  0
  2  3  2  0
  2  4  1  0
  4  5  2  0
  5  6  1  0
  6  7  1  0
  3  8  1  0
  3  9  1  0
  6  9  2  0
  5 10  1  0
 10 11  1  0
  7 12  2  0
 11 12  1  0
 12 13  1  0
 11 14  2  0
M  END
$$$$
