
     RDKit          3D

  9  8  0  0  0  0  0  0  0  0999 V2000
  138.7236  151.5756  143.3190 C   0  0  0  0  0  0  0  0  0  0  0  0
  137.9189  152.3262  143.7538 C   0  0  0  0  0  0  0  0  0  0  0  0
  136.7533  151.7852  144.4573 C   0  0  0  0  0  0  0  0  0  0  0  0
  138.5774  150.7784  142.3589 C   0  0  0  0  0  0  0  0  0  0  0  0
  139.4299  150.3899  141.2535 C   0  0  0  0  0  0  0  0  0  0  0  0
  136.5850  150.4067  144.4403 C   0  0  0  0  0  0  0  0  0  0  0  0
  140.6889  150.5451  141.0930 O   0  0  0  0  0  0  0  0  0  0  0  0
  138.8214  149.9409  140.1433 O   0  0  0  0  0  0  0  0  0  0  0  0
  135.7376  152.5644  145.1728 C   0  0  0  0  0  0  0  0  0  0  0  0
  1  2  1  0
  2  3  2  3
  1  4  2  3
  4  5  1  0
  3  6  1  0
  5  7  1  0
  5  8  2  0
  3  9  1  0
M  END
$$$$
