
     RDKit          3D

 14 15  0  0  0  0  0  0  0  0999 V2000
  140.3036  150.2148  139.4783 Cl  0  0  0  0  0  0  0  0  0  0  0  0
  138.6783  150.1860  140.5319 C   0  0  0  0  0  0  0  0  0  0  0  0
  137.6385  149.3831  140.0945 C   0  0  0  0  0  0  0  0  0  0  0  0
  138.7505  150.9487  141.6715 C   0  0  0  0  0  0  0  0  0  0  0  0
  136.5606  149.6034  140.7973 C   0  0  0  0  0  0  0  0  0  0  0  0
  136.3933  150.3970  141.9259 C   0  0  0  0  0  0  0  0  0  0  0  0
  135.1767  150.5746  142.7425 C   0  0  0  0  0  0  0  0  0  0  0  0
  135.6228  151.2741  143.9969 C   0  0  0  0  0  0  0  0  0  0  0  0
  134.8095  151.6415  145.0435 C   0  0  0  0  0  0  0  0  0  0  0  0
  133.6651  151.4000  145.3589 C   0  0  0  0  0  0  0  0  0  0  0  0
  136.9737  151.7929  144.2121 C   0  0  0  0  0  0  0  0  0  0  0  0
  135.6608  152.6149  145.8554 C   0  0  0  0  0  0  0  0  0  0  0  0
  137.0598  152.7207  145.1221 C   0  0  0  0  0  0  0  0  0  0  0  0
  137.8759  151.4881  143.1743 C   0  0  0  0  0  0  0  0  0  0  0  0
  1  2  1  0
  2  3  2  0
  2  4  1  0
  3  5  1  0
  5  6  2  0
  6  7  1  0
  7  8  2  0
  8  9  1  0
  9 10  2  0
  8 11  1  0
  9 12  1  0
 11 13  1  0
 12 13  1  0
  4 14  1  0
 11 14  2  0
M  END
$$$$
