
     RDKit          3D

 14 15  0  0  0  0  0  0  0  0999 V2000
  139.5348  150.8906  142.2305 C   0  0  0  0  0  0  0  0  0  0  0  0
  139.0139  150.3976  141.0574 C   0  0  0  0  0  0  0  0  0  0  0  0
  138.6965  150.9489  143.4028 C   0  0  0  0  0  0  0  0  0  0  0  0
  137.7130  149.9460  141.0427 C   0  0  0  0  0  0  0  0  0  0  0  0
  137.5183  150.9374  143.4785 C   0  0  0  0  0  0  0  0  0  0  0  0
  136.6733  151.1274  144.6812 C   0  0  0  0  0  0  0  0  0  0  0  0
  139.8472  150.3901  139.8637 C   0  0  0  0  0  0  0  0  0  0  0  0
  136.7200  150.2063  141.8846 C   0  0  0  0  0  0  0  0  0  0  0  0
  136.4930  150.6203  143.0434 C   0  0  0  0  0  0  0  0  0  0  0  0
  135.8664  151.8203  144.7141 C   0  0  0  0  0  0  0  0  0  0  0  0
  135.0874  152.5519  145.7463 C   0  0  0  0  0  0  0  0  0  0  0  0
  141.2321  150.2599  140.0266 C   0  0  0  0  0  0  0  0  0  0  0  0
  139.4149  150.5374  138.8443 O   0  0  0  0  0  0  0  0  0  0  0  0
  135.3039  151.0019  143.5951 C   0  0  0  0  0  0  0  0  0  0  0  0
  1  2  2  0
  1  3  1  0
  2  4  1  0
  3  5  2  0
  5  6  1  0
  2  7  1  0
  4  8  2  0
  5  9  1  0
  8  9  1  0
  6 10  1  0
 10 11  1  0
  7 12  1  0
  7 13  2  0
  9 14  2  0
 10 14  1  0
M  END
$$$$
