
     RDKit          3D

  9  9  0  0  0  0  0  0  0  0999 V2000
  139.5348  150.8906  142.2305 C   0  0  0  0  0  0  0  0  0  0  0  0
  139.0139  150.3976  141.0574 C   0  0  0  0  0  0  0  0  0  0  0  0
  138.6965  150.9489  143.4028 C   0  0  0  0  0  0  0  0  0  0  0  0
  137.7130  149.9460  141.0427 C   0  0  0  0  0  0  0  0  0  0  0  0
  137.5183  150.9374  143.4785 C   0  0  0  0  0  0  0  0  0  0  0  0
  137.0105  149.4597  139.8756 C   0  0  0  0  0  0  0  0  0  0  0  0
  136.7139  151.1270  144.7008 C   0  0  0  0  0  0  0  0  0  0  0  0
  136.7946  150.3863  142.2644 C   0  0  0  0  0  0  0  0  0  0  0  0
  139.8079  150.2705  139.9273 C   0  0  0  0  0  0  0  0  0  0  0  0
  1  2  2  0
  1  3  1  0
  2  4  1  0
  3  5  2  0
  4  6  1  0
  5  7  1  0
  4  8  2  0
  5  8  1  0
  2  9  1  0
M  END
$$$$
