
     RDKit          3D

 14 15  0  0  0  0  0  0  0  0999 V2000
  140.3036  150.2148  139.4783 Cl  0  0  0  0  0  0  0  0  0  0  0  0
  138.6783  150.1860  140.5319 C   0  0  0  0  0  0  0  0  0  0  0  0
  137.6385  149.3831  140.0945 C   0  0  0  0  0  0  0  0  0  0  0  0
  138.7505  150.9487  141.6715 C   0  0  0  0  0  0  0  0  0  0  0  0
  136.5606  149.6034  140.7973 C   0  0  0  0  0  0  0  0  0  0  0  0
  135.2960  149.0163  140.1852 C   0  0  0  0  0  0  0  0  0  0  0  0
  136.5422  150.4642  141.8563 C   0  0  0  0  0  0  0  0  0  0  0  0
  135.3353  150.6737  142.7430 C   0  0  0  0  0  0  0  0  0  0  0  0
  135.7908  151.4836  143.9525 C   0  0  0  0  0  0  0  0  0  0  0  0
  135.1610  151.6622  145.0840 C   0  0  0  0  0  0  0  0  0  0  0  0
  137.8715  151.0865  142.3168 C   0  0  0  0  0  0  0  0  0  0  0  0
  134.3363  151.0688  145.7145 C   0  0  0  0  0  0  0  0  0  0  0  0
  135.7056  152.9795  145.7888 C   0  0  0  0  0  0  0  0  0  0  0  0
  137.6774  151.8983  143.7632 S   0  0  0  0  0  0  0  0  0  0  0  0
  1  2  1  0
  2  3  2  0
  2  4  1  0
  3  5  1  0
  5  6  1  0
  5  7  2  0
  7  8  1  0
  8  9  1  0
  9 10  1  0
  4 11  2  0
  7 11  1  0
 10 12  2  0
 10 13  1  0
  9 14  2  0
 11 14  1  0
M  END
$$$$
