
     RDKit          3D

 14 15  0  0  0  0  0  0  0  0999 V2000
  140.3036  150.2148  139.4783 Cl  0  0  0  0  0  0  0  0  0  0  0  0
  138.6783  150.1860  140.5319 C   0  0  0  0  0  0  0  0  0  0  0  0
  137.6385  149.3831  140.0945 C   0  0  0  0  0  0  0  0  0  0  0  0
  139.0332  150.8824  141.6179 C   0  0  0  0  0  0  0  0  0  0  0  0
  136.6575  149.6448  140.8215 C   0  0  0  0  0  0  0  0  0  0  0  0
  135.2931  149.1275  140.2769 C   0  0  0  0  0  0  0  0  0  0  0  0
  136.7024  150.5097  141.8835 C   0  0  0  0  0  0  0  0  0  0  0  0
  135.5279  150.7540  142.7997 C   0  0  0  0  0  0  0  0  0  0  0  0
  136.0533  151.3559  144.1204 C   0  0  0  0  0  0  0  0  0  0  0  0
  138.0052  151.0510  142.3830 C   0  0  0  0  0  0  0  0  0  0  0  0
  135.0869  151.6683  145.1489 C   0  0  0  0  0  0  0  0  0  0  0  0
  137.4671  151.6286  144.2928 C   0  0  0  0  0  0  0  0  0  0  0  0
  138.1615  151.6676  143.4085 N   0  0  0  0  0  0  0  0  0  0  0  0
  137.4277  152.3506  145.5416 O   0  0  0  0  0  0  0  0  0  0  0  0
  1  2  1  0
  2  3  2  0
  2  4  1  0
  3  5  1  0
  5  6  1  0
  5  7  2  0
  7  8  1  0
  8  9  2  0
  4 10  2  0
  7 10  1  0
  9 11  1  0
  9 12  1  0
 10 13  1  0
 12 13  1  0
 12 14  2  0
M  END
$$$$
