
     RDKit          3D

 14 15  0  0  0  0  0  0  0  0999 V2000
  140.8778  150.5419  139.7337 Cl  0  0  0  0  0  0  0  0  0  0  0  0
  138.9614  150.5329  140.4448 C   0  0  0  0  0  0  0  0  0  0  0  0
  138.2154  149.5089  139.9489 C   0  0  0  0  0  0  0  0  0  0  0  0
  139.1215  151.1800  141.6231 C   0  0  0  0  0  0  0  0  0  0  0  0
  138.0837  150.9004  142.5999 C   0  0  0  0  0  0  0  0  0  0  0  0
  137.1000  149.9215  142.1731 C   0  0  0  0  0  0  0  0  0  0  0  0
  135.9904  149.8133  143.1128 C   0  0  0  0  0  0  0  0  0  0  0  0
  136.2020  150.8803  144.1689 C   0  0  0  0  0  0  0  0  0  0  0  0
  138.1207  151.4578  143.7958 C   0  0  0  0  0  0  0  0  0  0  0  0
  134.9524  151.0616  145.0869 C   0  0  0  0  0  0  0  0  0  0  0  0
  137.0432  149.3849  140.8561 C   0  0  0  0  0  0  0  0  0  0  0  0
  135.1048  152.0419  146.1908 C   0  0  0  0  0  0  0  0  0  0  0  0
  137.2838  151.4361  144.5830 C   0  0  0  0  0  0  0  0  0  0  0  0
  134.2309  152.2116  147.0581 C   0  0  0  0  0  0  0  0  0  0  0  0
  1  2  1  0
  2  3  2  0
  2  4  1  0
  4  5  2  0
  5  6  1  0
  6  7  1  0
  7  8  1  0
  5  9  1  0
  8 10  2  3
  3 11  1  0
  6 11  2  0
 10 12  1  0
  8 13  1  0
  9 13  2  0
 12 14  2  0
M  END
$$$$
