
     RDKit          3D

 14 15  0  0  0  0  0  0  0  0999 V2000
  138.9699  151.3138  142.5680 C   0  0  0  0  0  0  0  0  0  0  0  0
  138.6028  152.0884  143.2652 C   0  0  0  0  0  0  0  0  0  0  0  0
  137.6691  151.8112  144.0575 C   0  0  0  0  0  0  0  0  0  0  0  0
  136.5758  152.7066  144.5957 C   0  0  0  0  0  0  0  0  0  0  0  0
  139.8386  151.3584  141.3360 C   0  0  0  0  0  0  0  0  0  0  0  0
  135.4778  152.3761  145.3561 C   0  0  0  0  0  0  0  0  0  0  0  0
  135.5311  150.9302  145.6901 C   0  0  0  0  0  0  0  0  0  0  0  0
  137.2472  150.4901  144.6565 C   0  0  0  0  0  0  0  0  0  0  0  0
  138.3749  149.5781  144.2436 C   0  0  0  0  0  0  0  0  0  0  0  0
  139.6308  150.7649  140.3213 C   0  0  0  0  0  0  0  0  0  0  0  0
  140.4689  150.7140  139.1819 C   0  0  0  0  0  0  0  0  0  0  0  0
  139.0091  150.0050  143.0598 C   0  0  0  0  0  0  0  0  0  0  0  0
  134.4104  150.6466  146.6595 C   0  0  0  0  0  0  0  0  0  0  0  0
  136.5141  150.0537  145.2483 N   0  0  0  0  0  0  0  0  0  0  0  0
  1  2  2  0
  2  3  1  0
  3  4  1  0
  1  5  1  0
  4  6  2  0
  6  7  1  0
  3  8  2  0
  8  9  1  0
  5 10  2  3
 10 11  1  0
  1 12  1  0
  9 12  2  0
  7 13  1  0
  7 14  2  0
  8 14  1  0
M  END
$$$$
