
     RDKit          3D

  9  9  0  0  0  0  0  0  0  0999 V2000
  139.2621  151.0929  142.4047 C   0  0  0  0  0  0  0  0  0  0  0  0
  138.8616  152.1308  142.9039 C   0  0  0  0  0  0  0  0  0  0  0  0
  137.9118  151.7982  143.7822 C   0  0  0  0  0  0  0  0  0  0  0  0
  138.8285  150.4008  141.6024 C   0  0  0  0  0  0  0  0  0  0  0  0
  137.6662  149.9534  141.7610 C   0  0  0  0  0  0  0  0  0  0  0  0
  136.7054  150.4876  142.6446 C   0  0  0  0  0  0  0  0  0  0  0  0
  136.8348  151.3341  143.7043 C   0  0  0  0  0  0  0  0  0  0  0  0
  135.7039  151.5109  144.6694 C   0  0  0  0  0  0  0  0  0  0  0  0
  135.8672  152.3029  145.5664 O   0  0  0  0  0  0  0  0  0  0  0  0
  1  2  1  0
  2  3  2  0
  1  4  2  0
  4  5  1  0
  5  6  2  0
  3  7  1  0
  6  7  1  0
  7  8  1  0
  8  9  2  0
M  END
$$$$
