
     RDKit          3D

 10 10  0  0  0  0  0  0  0  0999 V2000
  139.3945  150.7512  142.0131 C   0  0  0  0  0  0  0  0  0  0  0  0
  139.0648  150.4899  140.7531 C   0  0  0  0  0  0  0  0  0  0  0  0
  138.4477  150.6358  143.0423 C   0  0  0  0  0  0  0  0  0  0  0  0
  137.8333  149.9852  140.4375 C   0  0  0  0  0  0  0  0  0  0  0  0
  136.8171  149.7852  141.4624 C   0  0  0  0  0  0  0  0  0  0  0  0
  138.7929  151.0544  144.4367 C   0  0  0  0  0  0  0  0  0  0  0  0
  137.7744  151.8317  144.9216 C   0  0  0  0  0  0  0  0  0  0  0  0
  137.0788  150.3186  142.6542 C   0  0  0  0  0  0  0  0  0  0  0  0
  136.6068  151.5223  145.5163 C   0  0  0  0  0  0  0  0  0  0  0  0
  140.1807  150.6516  139.5624 C   0  0  0  0  0  0  0  0  0  0  0  0
  1  2  2  0
  1  3  1  0
  2  4  1  0
  4  5  2  0
  3  6  1  0
  6  7  2  3
  3  8  2  0
  5  8  1  0
  7  9  1  0
  2 10  1  0
M  END
$$$$
