
     RDKit          3D

 10 11  0  0  0  0  0  0  0  0999 V2000
  140.3036  150.2148  139.4783 Cl  0  0  0  0  0  0  0  0  0  0  0  0
  138.6783  150.1860  140.5319 C   0  0  0  0  0  0  0  0  0  0  0  0
  137.6385  149.3831  140.0945 C   0  0  0  0  0  0  0  0  0  0  0  0
  139.0332  150.8824  141.6179 C   0  0  0  0  0  0  0  0  0  0  0  0
  136.4856  149.4719  141.0089 C   0  0  0  0  0  0  0  0  0  0  0  0
  136.6941  150.4320  141.9099 C   0  0  0  0  0  0  0  0  0  0  0  0
  135.4560  150.7034  142.8865 C   0  0  0  0  0  0  0  0  0  0  0  0
  135.9662  151.2424  144.1646 C   0  0  0  0  0  0  0  0  0  0  0  0
  137.3893  151.3743  144.2130 C   0  0  0  0  0  0  0  0  0  0  0  0
  137.8363  150.9789  142.4678 C   0  0  0  0  0  0  0  0  0  0  0  0
  1  2  1  0
  2  3  2  0
  2  4  1  0
  3  5  1  0
  5  6  2  0
  6  7  1  0
  7  8  2  0
  8  9  1  0
  4 10  2  0
  6 10  1  0
  9 10  1  0
M  END
$$$$
