
     RDKit          3D

 10 10  0  0  0  0  0  0  0  0999 V2000
  138.7090  151.1469  142.6269 C   0  0  0  0  0  0  0  0  0  0  0  0
  138.5260  151.9370  143.5114 C   0  0  0  0  0  0  0  0  0  0  0  0
  137.3819  151.6579  144.3963 C   0  0  0  0  0  0  0  0  0  0  0  0
  139.7051  151.1184  141.6077 C   0  0  0  0  0  0  0  0  0  0  0  0
  136.7557  152.5772  145.3074 C   0  0  0  0  0  0  0  0  0  0  0  0
  139.6288  150.4580  140.3315 C   0  0  0  0  0  0  0  0  0  0  0  0
  135.4634  152.3733  145.7817 C   0  0  0  0  0  0  0  0  0  0  0  0
  138.4482  149.6064  140.4217 C   0  0  0  0  0  0  0  0  0  0  0  0
  137.9583  148.9237  139.2159 C   0  0  0  0  0  0  0  0  0  0  0  0
  137.7388  149.8582  141.6788 C   0  0  0  0  0  0  0  0  0  0  0  0
  1  2  1  0
  2  3  2  3
  1  4  1  0
  3  5  1  0
  4  6  2  0
  5  7  1  0
  6  8  1  0
  8  9  1  0
  1 10  1  0
  8 10  2  0
M  END
$$$$
