
     RDKit          3D

 10 10  0  0  0  0  0  0  0  0999 V2000
  139.0004  149.7631  140.3649 C   0  0  0  0  0  0  0  0  0  0  0  0
  139.7623  150.8543  140.7370 C   0  0  0  0  0  0  0  0  0  0  0  0
  139.2605  149.1459  139.1745 C   0  0  0  0  0  0  0  0  0  0  0  0
  139.5454  151.5142  142.0095 C   0  0  0  0  0  0  0  0  0  0  0  0
  138.4600  150.9915  142.6960 C   0  0  0  0  0  0  0  0  0  0  0  0
  137.9001  149.5381  141.2311 C   0  0  0  0  0  0  0  0  0  0  0  0
  136.9799  148.5381  140.6070 C   0  0  0  0  0  0  0  0  0  0  0  0
  138.2631  151.6531  144.1471 C   0  0  0  0  0  0  0  0  0  0  0  0
  136.9580  151.4855  144.6749 C   0  0  0  0  0  0  0  0  0  0  0  0
  137.6668  150.1074  142.3344 C   0  0  0  0  0  0  0  0  0  0  0  0
  1  2  2  0
  1  3  1  0
  2  4  1  0
  4  5  2  0
  1  6  1  0
  6  7  1  0
  5  8  1  0
  8  9  2  0
  5 10  1  0
  6 10  2  0
M  END
$$$$
