
     RDKit          3D

 10 10  0  0  0  0  0  0  0  0999 V2000
  140.3036  150.2148  139.4783 Cl  0  0  0  0  0  0  0  0  0  0  0  0
  138.6783  150.1860  140.5319 C   0  0  0  0  0  0  0  0  0  0  0  0
  137.6385  149.3831  140.0945 C   0  0  0  0  0  0  0  0  0  0  0  0
  139.2417  150.7158  141.5756 C   0  0  0  0  0  0  0  0  0  0  0  0
  138.3592  151.0505  142.3777 C   0  0  0  0  0  0  0  0  0  0  0  0
  137.5069  148.8230  138.8349 C   0  0  0  0  0  0  0  0  0  0  0  0
  136.9965  150.6094  142.5121 C   0  0  0  0  0  0  0  0  0  0  0  0
  138.5367  151.7760  143.8925 C   0  0  0  0  0  0  0  0  0  0  0  0
  136.3419  150.1717  141.4259 C   0  0  0  0  0  0  0  0  0  0  0  0
  136.4581  149.4767  140.3265 C   0  0  0  0  0  0  0  0  0  0  0  0
  1  2  1  0
  2  3  1  0
  2  4  2  0
  4  5  1  0
  3  6  1  0
  5  7  2  0
  5  8  1  0
  7  9  1  0
  3 10  1  0
  9 10  2  0
M  END
$$$$
