
     RDKit          3D

 10 10  0  0  0  0  0  0  0  0999 V2000
  139.5348  150.8906  142.2305 C   0  0  0  0  0  0  0  0  0  0  0  0
  138.9997  151.9974  142.6382 C   0  0  0  0  0  0  0  0  0  0  0  0
  138.9554  149.6519  142.4266 C   0  0  0  0  0  0  0  0  0  0  0  0
  137.7538  151.8921  143.4337 C   0  0  0  0  0  0  0  0  0  0  0  0
  137.3041  153.0156  144.1120 C   0  0  0  0  0  0  0  0  0  0  0  0
  136.3827  152.7488  145.0837 C   0  0  0  0  0  0  0  0  0  0  0  0
  137.3487  150.4857  143.7615 C   0  0  0  0  0  0  0  0  0  0  0  0
  136.0349  151.5916  145.6314 C   0  0  0  0  0  0  0  0  0  0  0  0
  138.0914  149.3302  143.9008 C   0  0  0  0  0  0  0  0  0  0  0  0
  135.7813  154.0418  145.6556 C   0  0  0  0  0  0  0  0  0  0  0  0
  1  2  2  0
  1  3  1  0
  2  4  1  0
  4  5  1  0
  5  6  2  3
  4  7  2  0
  6  8  1  0
  3  9  2  0
  7  9  1  0
  6 10  1  0
M  END
$$$$
