
     RDKit          3D

 10 10  0  0  0  0  0  0  0  0999 V2000
  139.0004  149.7631  140.3649 C   0  0  0  0  0  0  0  0  0  0  0  0
  138.7142  149.5451  139.1249 C   0  0  0  0  0  0  0  0  0  0  0  0
  138.1856  150.1072  141.2839 C   0  0  0  0  0  0  0  0  0  0  0  0
  137.3213  149.5926  138.6821 C   0  0  0  0  0  0  0  0  0  0  0  0
  136.9821  149.1480  137.4604 O   0  0  0  0  0  0  0  0  0  0  0  0
  136.5137  149.8415  139.7487 C   0  0  0  0  0  0  0  0  0  0  0  0
  136.7936  150.1430  141.0177 C   0  0  0  0  0  0  0  0  0  0  0  0
  138.5756  150.5119  142.7151 C   0  0  0  0  0  0  0  0  0  0  0  0
  137.6788  150.5613  143.7547 C   0  0  0  0  0  0  0  0  0  0  0  0
  137.4796  151.8754  144.4386 C   0  0  0  0  0  0  0  0  0  0  0  0
  1  2  2  0
  1  3  1  0
  2  4  1  0
  4  5  2  0
  4  6  1  0
  3  7  1  0
  6  7  2  0
  3  8  1  0
  8  9  1  0
  9 10  1  0
M  END
$$$$
