
     RDKit          3D

 10 10  0  0  0  0  0  0  0  0999 V2000
  139.2621  151.0929  142.4047 C   0  0  0  0  0  0  0  0  0  0  0  0
  138.8616  152.1308  142.9039 C   0  0  0  0  0  0  0  0  0  0  0  0
  137.9118  151.7982  143.7822 C   0  0  0  0  0  0  0  0  0  0  0  0
  138.8285  150.4008  141.6024 C   0  0  0  0  0  0  0  0  0  0  0  0
  137.4396  150.0031  142.0975 C   0  0  0  0  0  0  0  0  0  0  0  0
  137.4534  152.5394  144.9337 C   0  0  0  0  0  0  0  0  0  0  0  0
  136.9501  150.7413  143.2095 C   0  0  0  0  0  0  0  0  0  0  0  0
  136.1262  152.5735  145.3134 C   0  0  0  0  0  0  0  0  0  0  0  0
  135.2368  153.1295  144.7270 O   0  0  0  0  0  0  0  0  0  0  0  0
  135.7370  151.9844  146.4631 O   0  0  0  0  0  0  0  0  0  0  0  0
  1  2  1  0
  2  3  2  0
  1  4  2  0
  4  5  1  0
  3  6  1  0
  3  7  1  0
  5  7  2  0
  6  8  1  0
  8  9  2  0
  8 10  1  0
M  END
$$$$
