
     RDKit          3D

 10 11  0  0  0  0  0  0  0  0999 V2000
  140.3036  150.2148  139.4783 Cl  0  0  0  0  0  0  0  0  0  0  0  0
  138.6783  150.1860  140.5319 C   0  0  0  0  0  0  0  0  0  0  0  0
  137.6385  149.3831  140.0945 C   0  0  0  0  0  0  0  0  0  0  0  0
  138.7505  150.9487  141.6715 C   0  0  0  0  0  0  0  0  0  0  0  0
  136.5606  149.6034  140.7973 C   0  0  0  0  0  0  0  0  0  0  0  0
  136.3933  150.3970  141.9259 C   0  0  0  0  0  0  0  0  0  0  0  0
  135.1767  150.5746  142.7425 C   0  0  0  0  0  0  0  0  0  0  0  0
  135.6228  151.2741  143.9969 C   0  0  0  0  0  0  0  0  0  0  0  0
  137.0251  151.5065  144.1056 C   0  0  0  0  0  0  0  0  0  0  0  0
  137.7673  151.0775  142.8812 C   0  0  0  0  0  0  0  0  0  0  0  0
  1  2  1  0
  2  3  2  0
  2  4  1  0
  3  5  1  0
  5  6  2  0
  6  7  1  0
  7  8  2  0
  8  9  1  0
  4 10  1  0
  6 10  1  0
  9 10  2  0
M  END
$$$$
