
     RDKit          3D

 11 12  0  0  0  0  0  0  0  0999 V2000
  139.2621  151.0929  142.4047 C   0  0  0  0  0  0  0  0  0  0  0  0
  138.8616  152.1308  142.9039 C   0  0  0  0  0  0  0  0  0  0  0  0
  137.7831  151.8921  143.8937 C   0  0  0  0  0  0  0  0  0  0  0  0
  138.6293  149.7793  142.4951 C   0  0  0  0  0  0  0  0  0  0  0  0
  137.6232  149.6974  143.4793 C   0  0  0  0  0  0  0  0  0  0  0  0
  137.3768  153.1151  144.6927 C   0  0  0  0  0  0  0  0  0  0  0  0
  136.1205  153.0622  145.3870 C   0  0  0  0  0  0  0  0  0  0  0  0
  135.4238  151.9283  145.3161 C   0  0  0  0  0  0  0  0  0  0  0  0
  134.3548  151.7346  146.2131 C   0  0  0  0  0  0  0  0  0  0  0  0
  137.1678  150.6994  144.1825 C   0  0  0  0  0  0  0  0  0  0  0  0
  135.8122  150.7204  144.6396 C   0  0  0  0  0  0  0  0  0  0  0  0
  1  2  1  0
  2  3  2  0
  1  4  2  0
  4  5  1  0
  3  6  1  0
  6  7  2  0
  7  8  1  0
  8  9  1  0
  3 10  1  0
  5 10  2  0
  8 11  2  0
 10 11  1  0
M  END
$$$$
