
     RDKit          3D

 11 11  0  0  0  0  0  0  0  0999 V2000
  140.3036  150.2148  139.4783 Cl  0  0  0  0  0  0  0  0  0  0  0  0
  138.6783  150.1860  140.5319 C   0  0  0  0  0  0  0  0  0  0  0  0
  137.6385  149.3831  140.0945 C   0  0  0  0  0  0  0  0  0  0  0  0
  136.4392  149.4569  140.8209 C   0  0  0  0  0  0  0  0  0  0  0  0
  138.9819  150.6978  141.6811 C   0  0  0  0  0  0  0  0  0  0  0  0
  136.5079  150.3497  141.8163 C   0  0  0  0  0  0  0  0  0  0  0  0
  135.2761  150.6086  142.7157 C   0  0  0  0  0  0  0  0  0  0  0  0
  137.7146  150.9262  142.4183 C   0  0  0  0  0  0  0  0  0  0  0  0
  135.4580  150.8003  144.0662 C   0  0  0  0  0  0  0  0  0  0  0  0
  134.9364  151.2640  144.9815 C   0  0  0  0  0  0  0  0  0  0  0  0
  135.6466  151.6589  146.2343 C   0  0  0  0  0  0  0  0  0  0  0  0
  1  2  1  0
  2  3  2  0
  3  4  1  0
  2  5  1  0
  4  6  2  0
  6  7  1  0
  5  8  2  0
  6  8  1  0
  7  9  2  3
  9 10  1  0
 10 11  1  0
M  END
$$$$
