
     RDKit          3D

  9  9  0  0  0  0  0  0  0  0999 V2000
  136.7829  127.1874  117.7496 C   0  0  0  0  0  0  0  0  0  0  0  0
  137.5843  128.0712  118.0377 C   0  0  0  0  0  0  0  0  0  0  0  0
  135.8488  127.3206  116.9274 C   0  0  0  0  0  0  0  0  0  0  0  0
  137.3884  129.3410  117.5642 C   0  0  0  0  0  0  0  0  0  0  0  0
  138.0140  130.5498  118.1216 O   0  0  0  0  0  0  0  0  0  0  0  0
  138.8812  130.4200  119.1404 C   0  0  0  0  0  0  0  0  0  0  0  0
  136.1311  129.5861  116.7611 C   0  0  0  0  0  0  0  0  0  0  0  0
  135.7840  130.9195  116.4178 F   0  0  0  0  0  0  0  0  0  0  0  0
  135.3251  128.6075  116.5064 C   0  0  0  0  0  0  0  0  0  0  0  0
  1  2  1  0
  1  3  2  0
  2  4  2  0
  4  5  1  0
  5  6  1  0
  4  7  1  0
  7  8  1  0
  3  9  1  0
  7  9  2  0
M  END
$$$$
