
     RDKit          3D

  9  9  0  0  0  0  0  0  0  0999 V2000
  129.3917  130.7364  122.2138 C   0  0  0  0  0  0  0  0  0  0  0  0
  130.6166  130.9990  122.6875 C   0  0  0  0  0  0  0  0  0  0  0  0
  129.0398  131.1366  121.0222 C   0  0  0  0  0  0  0  0  0  0  0  0
  127.7502  130.7325  120.4469 C   0  0  0  0  0  0  0  0  0  0  0  0
  126.7033  131.5693  120.6283 O   0  0  0  0  0  0  0  0  0  0  0  0
  131.5800  131.5623  121.9432 C   0  0  0  0  0  0  0  0  0  0  0  0
  127.7081  129.5363  119.8867 C   0  0  0  0  0  0  0  0  0  0  0  0
  130.1897  131.5432  120.1619 C   0  0  0  0  0  0  0  0  0  0  0  0
  131.3946  131.8021  120.6388 C   0  0  0  0  0  0  0  0  0  0  0  0
  1  2  2  0
  1  3  1  0
  3  4  1  0
  4  5  1  0
  2  6  1  0
  4  7  2  0
  3  8  2  0
  6  9  2  0
  8  9  1  0
M  END
$$$$
