
     RDKit          3D

  9  9  0  0  0  0  0  0  0  0999 V2000
  128.7928  130.3683  122.2574 Cl  0  0  0  0  0  0  0  0  0  0  0  0
  129.7883  131.1777  121.5837 C   0  0  0  0  0  0  0  0  0  0  0  0
  131.1230  131.4033  122.2801 C   0  0  0  0  0  0  0  0  0  0  0  0
  129.5006  131.7775  120.3700 C   0  0  0  0  0  0  0  0  0  0  0  0
  132.0242  132.2151  121.5921 C   0  0  0  0  0  0  0  0  0  0  0  0
  133.3072  132.4171  122.1771 Cl  0  0  0  0  0  0  0  0  0  0  0  0
  131.4996  132.7419  120.3516 C   0  0  0  0  0  0  0  0  0  0  0  0
  130.3214  132.5900  119.7751 N   0  0  0  0  0  0  0  0  0  0  0  0
  132.4773  133.9507  119.7669 C   0  0  0  0  0  0  0  0  0  0  0  0
  1  2  1  0
  2  3  1  0
  2  4  2  0
  3  5  2  0
  5  6  1  0
  5  7  1  0
  4  8  1  0
  7  8  2  0
  7  9  1  0
M  END
$$$$
