
     RDKit          3D

  9 10  0  0  0  0  0  0  0  0999 V2000
  136.7107  126.9573  117.2849 C   0  0  0  0  0  0  0  0  0  0  0  0
  137.3979  127.2008  118.3603 C   0  0  0  0  0  0  0  0  0  0  0  0
  135.6519  127.6093  117.1908 C   0  0  0  0  0  0  0  0  0  0  0  0
  135.5337  128.5396  117.8781 C   0  0  0  0  0  0  0  0  0  0  0  0
  136.7611  128.2060  118.9241 C   0  0  0  0  0  0  0  0  0  0  0  0
  134.7585  129.7047  118.2424 C   0  0  0  0  0  0  0  0  0  0  0  0
  135.0861  130.5575  119.2650 C   0  0  0  0  0  0  0  0  0  0  0  0
  136.7942  129.2133  119.9560 C   0  0  0  0  0  0  0  0  0  0  0  0
  136.1993  130.1285  120.0374 C   0  0  0  0  0  0  0  0  0  0  0  0
  1  2  1  0
  1  3  2  0
  3  4  1  0
  2  5  2  0
  4  5  1  0
  4  6  2  0
  6  7  1  0
  5  8  1  0
  7  9  2  0
  8  9  1  0
M  END
$$$$
