
     RDKit          3D

  9  9  0  0  0  0  0  0  0  0999 V2000
  136.4770  127.3101  117.1795 C   0  0  0  0  0  0  0  0  0  0  0  0
  137.5514  127.5875  117.8869 C   0  0  0  0  0  0  0  0  0  0  0  0
  138.1953  128.7827  117.9012 C   0  0  0  0  0  0  0  0  0  0  0  0
  135.8541  128.3912  116.5838 C   0  0  0  0  0  0  0  0  0  0  0  0
  139.2566  129.1689  118.7552 O   0  0  0  0  0  0  0  0  0  0  0  0
  137.2718  129.8403  117.4517 C   0  0  0  0  0  0  0  0  0  0  0  0
  134.5786  128.1272  115.8869 F   0  0  0  0  0  0  0  0  0  0  0  0
  139.2440  130.0520  119.4247 C   0  0  0  0  0  0  0  0  0  0  0  0
  136.2063  129.6850  116.8547 C   0  0  0  0  0  0  0  0  0  0  0  0
  1  2  1  0
  2  3  2  0
  1  4  2  0
  3  5  1  0
  3  6  1  0
  4  7  1  0
  5  8  1  0
  4  9  1  0
  6  9  2  0
M  END
$$$$
