
     RDKit          3D

  9  9  0  0  0  0  0  0  0  0999 V2000
  129.0694  131.8049  121.7010 C   0  0  0  0  0  0  0  0  0  0  0  0
  130.2348  132.2605  122.1189 C   0  0  0  0  0  0  0  0  0  0  0  0
  128.7661  131.8201  120.5057 O   0  0  0  0  0  0  0  0  0  0  0  0
  131.2310  132.5156  121.2753 C   0  0  0  0  0  0  0  0  0  0  0  0
  130.3793  132.3063  123.5887 C   0  0  0  0  0  0  0  0  0  0  0  0
  132.4501  132.9520  122.0081 C   0  0  0  0  0  0  0  0  0  0  0  0
  132.1390  132.9907  123.4619 C   0  0  0  0  0  0  0  0  0  0  0  0
  128.4148  131.1396  122.6274 O   0  0  0  0  0  0  0  0  0  0  0  0
  131.3385  132.4468  119.8537 C   0  0  0  0  0  0  0  0  0  0  0  0
  1  2  1  0
  1  3  2  0
  2  4  1  0
  2  5  2  0
  4  6  1  0
  5  7  1  0
  6  7  1  0
  1  8  1  0
  4  9  1  0
M  END
$$$$
