
     RDKit          3D

  9  9  0  0  0  0  0  0  0  0999 V2000
  127.8787  130.9173  121.0916 C   0  0  0  0  0  0  0  0  0  0  0  0
  128.6135  130.4623  121.8738 C   0  0  0  0  0  0  0  0  0  0  0  0
  129.8934  130.1382  121.7654 C   0  0  0  0  0  0  0  0  0  0  0  0
  130.8336  129.7731  122.9348 C   0  0  0  0  0  0  0  0  0  0  0  0
  130.3934  130.1893  120.4949 C   0  0  0  0  0  0  0  0  0  0  0  0
  129.5544  130.5277  119.4923 C   0  0  0  0  0  0  0  0  0  0  0  0
  128.2790  130.8786  119.7422 C   0  0  0  0  0  0  0  0  0  0  0  0
  131.6061  130.7866  123.3011 O   0  0  0  0  0  0  0  0  0  0  0  0
  131.6586  131.0436  124.7821 C   0  0  0  0  0  0  0  0  0  0  0  0
  1  2  2  0
  2  3  1  0
  3  4  1  0
  3  5  2  0
  5  6  1  0
  1  7  1  0
  6  7  2  0
  4  8  1  0
  8  9  1  0
M  END
$$$$
