
     RDKit          3D

  9  9  0  0  0  0  0  0  0  0999 V2000
  129.0258  130.3649  122.6316 Cl  0  0  0  0  0  0  0  0  0  0  0  0
  130.0370  131.1396  121.9812 C   0  0  0  0  0  0  0  0  0  0  0  0
  131.3104  131.4170  122.6564 C   0  0  0  0  0  0  0  0  0  0  0  0
  131.5953  130.9315  124.0391 C   0  0  0  0  0  0  0  0  0  0  0  0
  129.7620  131.3005  120.8592 C   0  0  0  0  0  0  0  0  0  0  0  0
  128.6826  130.6866  119.9795 O   0  0  0  0  0  0  0  0  0  0  0  0
  130.5630  132.1091  120.3555 C   0  0  0  0  0  0  0  0  0  0  0  0
  131.7304  132.6611  120.9651 C   0  0  0  0  0  0  0  0  0  0  0  0
  132.1351  132.2879  122.1295 C   0  0  0  0  0  0  0  0  0  0  0  0
  1  2  1  0
  2  3  2  0
  3  4  1  0
  2  5  1  0
  5  6  1  0
  5  7  2  0
  7  8  1  0
  3  9  1  0
  8  9  2  0
M  END
$$$$
