
     RDKit          3D

  9  9  0  0  0  0  0  0  0  0999 V2000
  136.7091  127.4141  117.2116 C   0  0  0  0  0  0  0  0  0  0  0  0
  136.8893  128.6606  117.1520 O   0  0  0  0  0  0  0  0  0  0  0  0
  135.8911  129.4385  117.6407 C   0  0  0  0  0  0  0  0  0  0  0  0
  135.2457  128.8367  118.7126 C   0  0  0  0  0  0  0  0  0  0  0  0
  134.6978  129.4574  119.7050 O   0  0  0  0  0  0  0  0  0  0  0  0
  135.5997  127.2294  118.2157 C   0  0  0  0  0  0  0  0  0  0  0  0
  133.8644  130.2966  119.9080 C   0  0  0  0  0  0  0  0  0  0  0  0
  133.9960  131.4022  119.1838 O   0  0  0  0  0  0  0  0  0  0  0  0
  132.8948  129.6698  120.6326 C   0  0  0  0  0  0  0  0  0  0  0  0
  1  2  1  0
  2  3  1  0
  3  4  1  0
  4  5  1  0
  1  6  1  0
  4  6  1  0
  5  7  1  0
  7  8  2  0
  7  9  1  0
M  END
$$$$
