
     RDKit          3D

  9  9  0  0  0  0  0  0  0  0999 V2000
  129.1856  130.9948  121.1414 C   0  0  0  0  0  0  0  0  0  0  0  0
  130.3787  130.9362  121.5666 C   0  0  0  0  0  0  0  0  0  0  0  0
  131.3350  130.4509  120.9903 C   0  0  0  0  0  0  0  0  0  0  0  0
  131.0799  129.7544  119.8144 C   0  0  0  0  0  0  0  0  0  0  0  0
  128.0650  131.3831  121.8486 F   0  0  0  0  0  0  0  0  0  0  0  0
  128.9028  130.3347  119.8840 C   0  0  0  0  0  0  0  0  0  0  0  0
  129.9463  129.7639  119.2354 C   0  0  0  0  0  0  0  0  0  0  0  0
  130.4861  131.7107  123.0965 C   0  0  0  0  0  0  0  0  0  0  0  0
  132.6490  129.2700  119.1930 Cl  0  0  0  0  0  0  0  0  0  0  0  0
  1  2  2  0
  2  3  1  0
  3  4  2  0
  1  5  1  0
  1  6  1  0
  4  7  1  0
  6  7  2  0
  2  8  1  0
  4  9  1  0
M  END
$$$$
