
     RDKit          3D

  9 10  0  0  0  0  0  0  0  0999 V2000
  136.7107  126.9573  117.2849 C   0  0  0  0  0  0  0  0  0  0  0  0
  137.3979  127.2008  118.3603 O   0  0  0  0  0  0  0  0  0  0  0  0
  135.7356  127.7006  117.2555 C   0  0  0  0  0  0  0  0  0  0  0  0
  135.7153  128.6135  117.9317 C   0  0  0  0  0  0  0  0  0  0  0  0
  136.9087  128.3839  118.9137 C   0  0  0  0  0  0  0  0  0  0  0  0
  134.9660  129.8520  118.3603 C   0  0  0  0  0  0  0  0  0  0  0  0
  137.4146  129.1577  119.8301 C   0  0  0  0  0  0  0  0  0  0  0  0
  135.4668  130.6400  119.3840 C   0  0  0  0  0  0  0  0  0  0  0  0
  136.7820  130.2934  120.0806 C   0  0  0  0  0  0  0  0  0  0  0  0
  1  2  1  0
  1  3  2  0
  3  4  1  0
  2  5  1  0
  4  5  2  0
  4  6  1  0
  5  7  1  0
  6  8  2  0
  7  9  2  0
  8  9  1  0
M  END
$$$$
