
     RDKit          3D

  9 10  0  0  0  0  0  0  0  0999 V2000
  136.3914  127.2705  117.0970 C   0  0  0  0  0  0  0  0  0  0  0  0
  137.5613  127.5059  117.7206 O   0  0  0  0  0  0  0  0  0  0  0  0
  135.3937  127.9995  117.2665 C   0  0  0  0  0  0  0  0  0  0  0  0
  137.3708  128.6141  118.6170 C   0  0  0  0  0  0  0  0  0  0  0  0
  138.2885  129.1011  119.4323 O   0  0  0  0  0  0  0  0  0  0  0  0
  136.0278  129.0659  118.5330 C   0  0  0  0  0  0  0  0  0  0  0  0
  135.6136  129.9765  119.2990 C   0  0  0  0  0  0  0  0  0  0  0  0
  137.8971  130.2693  120.1182 C   0  0  0  0  0  0  0  0  0  0  0  0
  136.6558  130.6770  120.0860 C   0  0  0  0  0  0  0  0  0  0  0  0
  1  2  1  0
  1  3  2  0
  2  4  1  0
  4  5  1  0
  3  6  1  0
  4  6  2  0
  6  7  1  0
  5  8  1  0
  7  9  2  0
  8  9  1  0
M  END
$$$$
