
     RDKit          3D

  9 10  0  0  0  0  0  0  0  0999 V2000
  128.5500  130.6278  121.3982 C   0  0  0  0  0  0  0  0  0  0  0  0
  129.6438  130.7344  122.0921 C   0  0  0  0  0  0  0  0  0  0  0  0
  130.8842  130.7171  121.8464 C   0  0  0  0  0  0  0  0  0  0  0  0
  131.9760  130.8711  122.8813 C   0  0  0  0  0  0  0  0  0  0  0  0
  128.7497  130.4087  120.3528 O   0  0  0  0  0  0  0  0  0  0  0  0
  130.8330  130.4017  120.4323 C   0  0  0  0  0  0  0  0  0  0  0  0
  129.9246  130.2504  119.8048 C   0  0  0  0  0  0  0  0  0  0  0  0
  129.9536  131.2143  123.6557 C   0  0  0  0  0  0  0  0  0  0  0  0
  131.3257  131.1562  124.0270 C   0  0  0  0  0  0  0  0  0  0  0  0
  1  2  2  0
  2  3  1  0
  3  4  1  0
  1  5  1  0
  3  6  2  0
  5  7  1  0
  6  7  1  0
  2  8  1  0
  4  9  1  0
  8  9  2  0
M  END
$$$$
