
     RDKit          3D

  9  9  0  0  0  0  0  0  0  0999 V2000
  128.0184  130.8184  121.2531 C   0  0  0  0  0  0  0  0  0  0  0  0
  128.2713  130.8899  120.0651 C   0  0  0  0  0  0  0  0  0  0  0  0
  129.3730  130.1365  119.3223 C   0  0  0  0  0  0  0  0  0  0  0  0
  129.0665  130.4796  121.9428 C   0  0  0  0  0  0  0  0  0  0  0  0
  130.3937  129.7333  120.2331 C   0  0  0  0  0  0  0  0  0  0  0  0
  129.0451  130.8762  123.4923 C   0  0  0  0  0  0  0  0  0  0  0  0
  130.2538  130.0591  121.4869 C   0  0  0  0  0  0  0  0  0  0  0  0
  131.6954  129.2678  119.6554 C   0  0  0  0  0  0  0  0  0  0  0  0
  132.7847  129.7012  120.0496 O   0  0  0  0  0  0  0  0  0  0  0  0
  1  2  2  0
  2  3  1  0
  1  4  1  0
  3  5  2  0
  4  6  1  0
  4  7  2  0
  5  7  1  0
  5  8  1  0
  8  9  2  0
M  END
$$$$
