
     RDKit          3D

  9  9  0  0  0  0  0  0  0  0999 V2000
  129.1856  130.9948  121.1414 C   0  0  0  0  0  0  0  0  0  0  0  0
  130.3787  130.9362  121.5666 C   0  0  0  0  0  0  0  0  0  0  0  0
  130.7996  131.3884  122.8897 C   0  0  0  0  0  0  0  0  0  0  0  0
  131.3821  130.3017  120.7575 C   0  0  0  0  0  0  0  0  0  0  0  0
  128.7797  130.2674  119.9658 C   0  0  0  0  0  0  0  0  0  0  0  0
  129.8693  129.6505  119.3461 C   0  0  0  0  0  0  0  0  0  0  0  0
  129.7982  131.7046  123.8726 C   0  0  0  0  0  0  0  0  0  0  0  0
  131.0760  129.6747  119.6625 C   0  0  0  0  0  0  0  0  0  0  0  0
  132.2159  131.4149  123.1398 C   0  0  0  0  0  0  0  0  0  0  0  0
  1  2  2  0
  2  3  1  0
  2  4  1  0
  1  5  1  0
  5  6  2  0
  3  7  1  0
  4  8  2  0
  6  8  1  0
  3  9  2  0
M  END
$$$$
