
     RDKit          3D

  9  9  0  0  0  0  0  0  0  0999 V2000
  136.7561  127.5022  117.4092 C   0  0  0  0  0  0  0  0  0  0  0  0
  135.9448  128.4728  117.6758 C   0  0  0  0  0  0  0  0  0  0  0  0
  134.7290  128.5429  118.3636 O   0  0  0  0  0  0  0  0  0  0  0  0
  137.0377  126.7127  118.5394 C   0  0  0  0  0  0  0  0  0  0  0  0
  134.6474  129.6561  119.1865 C   0  0  0  0  0  0  0  0  0  0  0  0
  135.8569  129.9236  117.3548 C   0  0  0  0  0  0  0  0  0  0  0  0
  134.0339  129.6278  120.2932 C   0  0  0  0  0  0  0  0  0  0  0  0
  135.3332  130.4379  118.3127 C   0  0  0  0  0  0  0  0  0  0  0  0
  135.0119  131.7155  118.7309 O   0  0  0  0  0  0  0  0  0  0  0  0
  1  2  1  0
  2  3  1  0
  1  4  1  0
  3  5  1  0
  2  6  2  0
  5  7  2  0
  5  8  1  0
  6  8  1  0
  8  9  2  0
M  END
$$$$
