
     RDKit          3D

 10 10  0  0  0  0  0  0  0  0999 V2000
  128.7928  130.3683  122.2574 Cl  0  0  0  0  0  0  0  0  0  0  0  0
  129.6904  131.2402  121.8012 C   0  0  0  0  0  0  0  0  0  0  0  0
  131.0094  131.4679  122.5182 C   0  0  0  0  0  0  0  0  0  0  0  0
  129.5432  131.8702  120.6464 C   0  0  0  0  0  0  0  0  0  0  0  0
  128.3710  131.7441  119.8925 F   0  0  0  0  0  0  0  0  0  0  0  0
  130.5457  132.6310  120.3071 C   0  0  0  0  0  0  0  0  0  0  0  0
  131.2610  130.8920  123.9022 C   0  0  0  0  0  0  0  0  0  0  0  0
  131.6845  132.7657  121.1740 C   0  0  0  0  0  0  0  0  0  0  0  0
  132.6081  133.8764  120.5844 C   0  0  0  0  0  0  0  0  0  0  0  0
  131.7399  132.2006  122.1962 C   0  0  0  0  0  0  0  0  0  0  0  0
  1  2  1  0
  2  3  2  0
  2  4  1  0
  4  5  1  0
  4  6  2  0
  3  7  1  0
  6  8  1  0
  8  9  1  0
  3 10  1  0
  8 10  2  0
M  END
$$$$
