
     RDKit          3D

 10 10  0  0  0  0  0  0  0  0999 V2000
  136.8323  129.0222  117.5389 C   0  0  0  0  0  0  0  0  0  0  0  0
  136.0735  129.6299  118.3469 C   0  0  0  0  0  0  0  0  0  0  0  0
  134.7356  129.2551  118.6145 C   0  0  0  0  0  0  0  0  0  0  0  0
  133.9162  129.9019  119.5474 O   0  0  0  0  0  0  0  0  0  0  0  0
  134.8033  128.1092  117.9566 O   0  0  0  0  0  0  0  0  0  0  0  0
  136.3517  130.9729  119.0304 C   0  0  0  0  0  0  0  0  0  0  0  0
  138.3194  129.3824  117.5277 C   0  0  0  0  0  0  0  0  0  0  0  0
  136.4078  127.9061  116.6767 O   0  0  0  0  0  0  0  0  0  0  0  0
  138.6089  130.6315  118.2015 C   0  0  0  0  0  0  0  0  0  0  0  0
  137.7323  131.3828  118.9513 C   0  0  0  0  0  0  0  0  0  0  0  0
  1  2  2  0
  2  3  1  0
  3  4  1  0
  3  5  2  0
  2  6  1  0
  1  7  1  0
  1  8  1  0
  7  9  2  0
  6 10  2  0
  9 10  1  0
M  END
$$$$
