
     RDKit          3D

 10 10  0  0  0  0  0  0  0  0999 V2000
  135.6132  130.9736  118.1529 C   0  0  0  0  0  0  0  0  0  0  0  0
  134.5165  130.4627  118.4787 C   0  0  0  0  0  0  0  0  0  0  0  0
  136.9451  130.3871  118.0993 C   0  0  0  0  0  0  0  0  0  0  0  0
  136.7940  129.1318  118.5938 C   0  0  0  0  0  0  0  0  0  0  0  0
  138.0694  128.3439  118.6631 C   0  0  0  0  0  0  0  0  0  0  0  0
  135.7413  128.7530  119.0493 C   0  0  0  0  0  0  0  0  0  0  0  0
  134.7046  129.2480  118.9436 C   0  0  0  0  0  0  0  0  0  0  0  0
  139.2175  129.0406  118.9319 C   0  0  0  0  0  0  0  0  0  0  0  0
  140.4135  128.6657  118.6926 O   0  0  0  0  0  0  0  0  0  0  0  0
  138.9126  130.2186  119.6262 O   0  0  0  0  0  0  0  0  0  0  0  0
  1  2  1  0
  1  3  2  0
  3  4  1  0
  4  5  1  0
  4  6  2  0
  2  7  2  0
  6  7  1  0
  5  8  1  0
  8  9  2  0
  8 10  1  0
M  END
$$$$
