
     RDKit          3D

 10 10  0  0  0  0  0  0  0  0999 V2000
  135.6132  130.9736  118.1529 C   0  0  0  0  0  0  0  0  0  0  0  0
  134.5165  130.4627  118.4787 C   0  0  0  0  0  0  0  0  0  0  0  0
  136.9451  130.3871  118.0993 C   0  0  0  0  0  0  0  0  0  0  0  0
  138.2006  131.0894  117.8253 C   0  0  0  0  0  0  0  0  0  0  0  0
  135.8429  132.4142  117.6072 C   0  0  0  0  0  0  0  0  0  0  0  0
  134.5205  129.3162  119.1098 C   0  0  0  0  0  0  0  0  0  0  0  0
  137.9870  132.4486  117.4997 C   0  0  0  0  0  0  0  0  0  0  0  0
  136.8315  133.1647  117.3698 C   0  0  0  0  0  0  0  0  0  0  0  0
  133.3601  128.7464  119.6797 O   0  0  0  0  0  0  0  0  0  0  0  0
  132.6262  129.6798  120.3989 C   0  0  0  0  0  0  0  0  0  0  0  0
  1  2  1  0
  1  3  2  0
  3  4  1  0
  1  5  1  0
  2  6  2  3
  4  7  2  0
  5  8  2  0
  7  8  1  0
  6  9  1  0
  9 10  1  0
M  END
$$$$
