
     RDKit          3D

 10 11  0  0  0  0  0  0  0  0999 V2000
  136.7561  127.5022  117.4092 C   0  0  0  0  0  0  0  0  0  0  0  0
  135.9448  128.4728  117.6758 C   0  0  0  0  0  0  0  0  0  0  0  0
  134.7290  128.5429  118.3636 O   0  0  0  0  0  0  0  0  0  0  0  0
  134.5189  129.7307  119.0411 C   0  0  0  0  0  0  0  0  0  0  0  0
  133.4123  129.8175  119.7121 C   0  0  0  0  0  0  0  0  0  0  0  0
  135.6228  130.2855  118.6528 C   0  0  0  0  0  0  0  0  0  0  0  0
  136.1227  129.8487  117.8387 C   0  0  0  0  0  0  0  0  0  0  0  0
  135.7124  131.6755  119.4216 C   0  0  0  0  0  0  0  0  0  0  0  0
  134.7957  131.8377  120.4988 C   0  0  0  0  0  0  0  0  0  0  0  0
  133.8292  131.1414  120.4845 C   0  0  0  0  0  0  0  0  0  0  0  0
  1  2  1  0
  2  3  1  0
  3  4  1  0
  4  5  2  0
  4  6  1  0
  2  7  1  0
  6  7  1  0
  6  8  2  0
  8  9  1  0
  5 10  1  0
  9 10  2  0
M  END
$$$$
