
     RDKit          3D

 10 10  0  0  0  0  0  0  0  0999 V2000
  135.7675  129.7549  117.5138 C   0  0  0  0  0  0  0  0  0  0  0  0
  136.1745  128.4532  117.6548 C   0  0  0  0  0  0  0  0  0  0  0  0
  137.4192  128.0173  117.5408 C   0  0  0  0  0  0  0  0  0  0  0  0
  134.4200  130.2336  117.8480 C   0  0  0  0  0  0  0  0  0  0  0  0
  134.2888  131.6265  118.0788 C   0  0  0  0  0  0  0  0  0  0  0  0
  134.9318  127.8299  117.8532 F   0  0  0  0  0  0  0  0  0  0  0  0
  136.6985  130.6293  117.2709 C   0  0  0  0  0  0  0  0  0  0  0  0
  138.1362  130.3443  117.5150 C   0  0  0  0  0  0  0  0  0  0  0  0
  138.3586  129.1704  117.5039 C   0  0  0  0  0  0  0  0  0  0  0  0
  133.4919  129.2969  118.1495 O   0  0  0  0  0  0  0  0  0  0  0  0
  1  2  1  0
  2  3  2  0
  1  4  1  0
  4  5  1  0
  2  6  1  0
  1  7  2  0
  7  8  1  0
  3  9  1  0
  8  9  2  0
  4 10  2  0
M  END
$$$$
