
     RDKit          3D

 10 10  0  0  0  0  0  0  0  0999 V2000
  129.5804  130.4836  122.4334 C   0  0  0  0  0  0  0  0  0  0  0  0
  130.7593  130.8591  122.9295 C   0  0  0  0  0  0  0  0  0  0  0  0
  129.0571  131.1873  121.5564 C   0  0  0  0  0  0  0  0  0  0  0  0
  131.3863  130.1413  124.2900 Cl  0  0  0  0  0  0  0  0  0  0  0  0
  131.3935  131.9843  122.3653 C   0  0  0  0  0  0  0  0  0  0  0  0
  127.7470  130.7164  121.0397 C   0  0  0  0  0  0  0  0  0  0  0  0
  130.7560  132.6471  121.3690 C   0  0  0  0  0  0  0  0  0  0  0  0
  127.7933  129.8982  120.0249 C   0  0  0  0  0  0  0  0  0  0  0  0
  129.7027  132.1708  120.9314 C   0  0  0  0  0  0  0  0  0  0  0  0
  128.8498  129.2144  119.5607 C   0  0  0  0  0  0  0  0  0  0  0  0
  1  2  2  0
  1  3  1  0
  2  4  1  0
  2  5  1  0
  3  6  1  0
  5  7  2  0
  6  8  2  3
  3  9  2  0
  7  9  1  0
  8 10  1  0
M  END
$$$$
