
     RDKit          3D

 10 10  0  0  0  0  0  0  0  0999 V2000
  129.1856  130.9948  121.1414 C   0  0  0  0  0  0  0  0  0  0  0  0
  130.3787  130.9362  121.5666 C   0  0  0  0  0  0  0  0  0  0  0  0
  130.7996  131.3884  122.8897 C   0  0  0  0  0  0  0  0  0  0  0  0
  129.7344  131.7255  123.7484 C   0  0  0  0  0  0  0  0  0  0  0  0
  131.4596  130.3615  120.7286 C   0  0  0  0  0  0  0  0  0  0  0  0
  132.8061  130.2311  121.1962 C   0  0  0  0  0  0  0  0  0  0  0  0
  132.2375  131.4245  123.2957 C   0  0  0  0  0  0  0  0  0  0  0  0
  128.1605  131.4172  122.1122 F   0  0  0  0  0  0  0  0  0  0  0  0
  132.5539  131.8576  124.5140 C   0  0  0  0  0  0  0  0  0  0  0  0
  132.8075  130.7060  122.3244 C   0  0  0  0  0  0  0  0  0  0  0  0
  1  2  2  3
  2  3  1  0
  3  4  2  0
  2  5  1  0
  5  6  2  0
  3  7  1  0
  1  8  1  0
  7  9  1  0
  6 10  1  0
  7 10  2  0
M  END
$$$$
