
     RDKit          3D

 10 11  0  0  0  0  0  0  0  0999 V2000
  135.6132  130.9736  118.1529 C   0  0  0  0  0  0  0  0  0  0  0  0
  134.5165  130.4627  118.4787 C   0  0  0  0  0  0  0  0  0  0  0  0
  136.9451  130.3871  118.0993 C   0  0  0  0  0  0  0  0  0  0  0  0
  136.7940  129.1318  118.5938 C   0  0  0  0  0  0  0  0  0  0  0  0
  135.3967  132.5533  117.6029 C   0  0  0  0  0  0  0  0  0  0  0  0
  134.6860  129.1456  118.9666 C   0  0  0  0  0  0  0  0  0  0  0  0
  138.2478  128.5881  118.8695 C   0  0  0  0  0  0  0  0  0  0  0  0
  135.8411  128.5678  118.8165 C   0  0  0  0  0  0  0  0  0  0  0  0
  139.2617  129.5723  118.8028 C   0  0  0  0  0  0  0  0  0  0  0  0
  138.0669  130.8970  117.9098 O   0  0  0  0  0  0  0  0  0  0  0  0
  1  2  1  0
  1  3  2  0
  3  4  1  0
  1  5  1  0
  2  6  2  0
  4  7  1  0
  4  8  2  0
  6  8  1  0
  7  9  2  0
  3 10  1  0
  9 10  1  0
M  END
$$$$
