
     RDKit          3D

 10 10  0  0  0  0  0  0  0  0999 V2000
  129.1856  130.9948  121.1414 C   0  0  0  0  0  0  0  0  0  0  0  0
  130.3787  130.9362  121.5666 C   0  0  0  0  0  0  0  0  0  0  0  0
  131.3350  130.4509  120.9903 C   0  0  0  0  0  0  0  0  0  0  0  0
  130.4349  131.4317  122.8457 O   0  0  0  0  0  0  0  0  0  0  0  0
  131.1413  129.7475  119.8362 C   0  0  0  0  0  0  0  0  0  0  0  0
  129.8678  129.7074  119.3083 C   0  0  0  0  0  0  0  0  0  0  0  0
  128.0876  131.3614  121.9755 F   0  0  0  0  0  0  0  0  0  0  0  0
  129.7850  132.3567  123.5362 C   0  0  0  0  0  0  0  0  0  0  0  0
  128.8512  130.3932  119.9508 C   0  0  0  0  0  0  0  0  0  0  0  0
  132.5880  129.1888  119.1949 Cl  0  0  0  0  0  0  0  0  0  0  0  0
  1  2  2  0
  2  3  1  0
  2  4  1  0
  3  5  2  0
  5  6  1  0
  1  7  1  0
  4  8  1  0
  1  9  1  0
  6  9  2  0
  5 10  1  0
M  END
$$$$
