
     RDKit          3D

  9  9  0  0  0  0  0  0  0  0999 V2000
  139.2621  151.0930  142.4042 C   0  0  0  0  0  0  0  0  0  0  0  0
  138.8616  152.1304  142.9039 C   0  0  0  0  0  0  0  0  0  0  0  0
  137.9119  151.7966  143.7821 C   0  0  0  0  0  0  0  0  0  0  0  0
  138.7654  149.7982  142.5171 C   0  0  0  0  0  0  0  0  0  0  0  0
  137.7602  149.7628  143.5372 C   0  0  0  0  0  0  0  0  0  0  0  0
  137.4206  153.0951  144.6591 C   0  0  0  0  0  0  0  0  0  0  0  0
  136.2493  152.9547  145.2581 C   0  0  0  0  0  0  0  0  0  0  0  0
  137.3213  150.7107  144.2371 C   0  0  0  0  0  0  0  0  0  0  0  0
  135.6458  154.1812  145.8249 C   0  0  0  0  0  0  0  0  0  0  0  0
  1  2  1  0
  2  3  2  0
  1  4  2  0
  4  5  1  0
  3  6  1  0
  6  7  2  3
  3  8  1  0
  5  8  2  0
  7  9  1  0
M  END
$$$$
