
     RDKit          3D

 11 11  0  0  0  0  0  0  0  0999 V2000
  140.3038  150.2150  139.4785 Cl  0  0  0  0  0  0  0  0  0  0  0  0
  138.6786  150.1874  140.5317 C   0  0  0  0  0  0  0  0  0  0  0  0
  137.6385  149.3840  140.0946 C   0  0  0  0  0  0  0  0  0  0  0  0
  138.8663  150.7187  141.4505 C   0  0  0  0  0  0  0  0  0  0  0  0
  137.8215  150.8029  142.5157 C   0  0  0  0  0  0  0  0  0  0  0  0
  136.6690  150.0407  142.1961 C   0  0  0  0  0  0  0  0  0  0  0  0
  137.4948  148.7965  138.8646 C   0  0  0  0  0  0  0  0  0  0  0  0
  136.3822  149.5499  140.9912 C   0  0  0  0  0  0  0  0  0  0  0  0
  137.9101  151.4566  143.8133 C   0  0  0  0  0  0  0  0  0  0  0  0
  136.8474  151.6651  144.5797 C   0  0  0  0  0  0  0  0  0  0  0  0
  136.4413  151.2163  145.6617 C   0  0  0  0  0  0  0  0  0  0  0  0
  1  2  1  0
  2  3  2  0
  2  4  1  0
  4  5  2  0
  5  6  1  0
  3  7  1  0
  3  8  1  0
  6  8  2  0
  5  9  1  0
  9 10  1  0
 10 11  2  0
M  END
$$$$
