
     RDKit          3D

 11 11  0  0  0  0  0  0  0  0999 V2000
  138.9705  151.3131  142.5679 C   0  0  0  0  0  0  0  0  0  0  0  0
  138.6042  152.0888  143.2654 C   0  0  0  0  0  0  0  0  0  0  0  0
  137.4887  151.7640  144.1910 C   0  0  0  0  0  0  0  0  0  0  0  0
  139.9944  151.3872  141.4253 C   0  0  0  0  0  0  0  0  0  0  0  0
  139.7073  150.7352  140.2228 C   0  0  0  0  0  0  0  0  0  0  0  0
  138.5884  149.8115  140.3759 C   0  0  0  0  0  0  0  0  0  0  0  0
  138.2222  149.9917  142.3886 C   0  0  0  0  0  0  0  0  0  0  0  0
  138.1098  149.1916  139.1265 C   0  0  0  0  0  0  0  0  0  0  0  0
  137.0652  152.7504  145.1357 C   0  0  0  0  0  0  0  0  0  0  0  0
  137.9150  149.4994  141.5144 C   0  0  0  0  0  0  0  0  0  0  0  0
  135.7561  152.6718  145.7053 C   0  0  0  0  0  0  0  0  0  0  0  0
  1  2  1  0
  2  3  2  3
  1  4  1  0
  4  5  2  0
  5  6  1  0
  1  7  2  0
  6  8  1  0
  3  9  1  0
  6 10  2  0
  7 10  1  0
  9 11  1  0
M  END
$$$$
