
     RDKit          3D

 11 12  0  0  0  0  0  0  0  0999 V2000
  140.3038  150.2150  139.4785 Cl  0  0  0  0  0  0  0  0  0  0  0  0
  138.6786  150.1874  140.5317 C   0  0  0  0  0  0  0  0  0  0  0  0
  137.6385  149.3840  140.0946 C   0  0  0  0  0  0  0  0  0  0  0  0
  138.8663  150.7187  141.4505 C   0  0  0  0  0  0  0  0  0  0  0  0
  136.5679  149.5915  140.7717 C   0  0  0  0  0  0  0  0  0  0  0  0
  136.4392  150.3739  141.9168 C   0  0  0  0  0  0  0  0  0  0  0  0
  135.2724  150.5937  142.7496 C   0  0  0  0  0  0  0  0  0  0  0  0
  137.7274  150.9737  142.4013 C   0  0  0  0  0  0  0  0  0  0  0  0
  135.4723  150.7071  144.1100 C   0  0  0  0  0  0  0  0  0  0  0  0
  136.6985  150.6520  144.7719 C   0  0  0  0  0  0  0  0  0  0  0  0
  137.6281  151.4835  144.0431 C   0  0  0  0  0  0  0  0  0  0  0  0
  1  2  1  0
  2  3  2  0
  2  4  1  0
  3  5  1  0
  5  6  2  0
  6  7  1  0
  4  8  2  0
  6  8  1  0
  7  9  2  0
  9 10  1  0
  8 11  1  0
 10 11  1  0
M  END
$$$$
