
     RDKit          3D

 12 13  0  0  0  0  0  0  0  0999 V2000
  138.9705  151.3131  142.5679 C   0  0  0  0  0  0  0  0  0  0  0  0
  138.6042  152.0888  143.2654 C   0  0  0  0  0  0  0  0  0  0  0  0
  137.4887  151.7640  144.1910 C   0  0  0  0  0  0  0  0  0  0  0  0
  137.1673  150.4135  144.2710 C   0  0  0  0  0  0  0  0  0  0  0  0
  136.7837  152.6380  145.0886 C   0  0  0  0  0  0  0  0  0  0  0  0
  138.5889  149.8386  142.4057 C   0  0  0  0  0  0  0  0  0  0  0  0
  137.0939  153.8636  145.1629 C   0  0  0  0  0  0  0  0  0  0  0  0
  139.0958  149.0319  141.4957 C   0  0  0  0  0  0  0  0  0  0  0  0
  135.6368  152.1771  145.3913 C   0  0  0  0  0  0  0  0  0  0  0  0
  135.3317  150.8634  145.3879 C   0  0  0  0  0  0  0  0  0  0  0  0
  135.9558  149.8204  144.9109 C   0  0  0  0  0  0  0  0  0  0  0  0
  137.8008  149.4816  143.3658 N   0  0  0  0  0  0  0  0  0  0  0  0
  1  2  1  0
  2  3  2  0
  3  4  1  0
  3  5  1  0
  1  6  2  0
  5  7  1  0
  6  8  1  0
  5  9  2  0
  9 10  1  0
  4 11  1  0
 10 11  2  0
  4 12  2  0
  6 12  1  0
M  END
$$$$
