
     RDKit          3D

 12 13  0  0  0  0  0  0  0  0999 V2000
  138.7090  151.1480  142.6270 C   0  0  0  0  0  0  0  0  0  0  0  0
  138.5232  151.9372  143.5110 C   0  0  0  0  0  0  0  0  0  0  0  0
  137.3801  151.6562  144.3958 C   0  0  0  0  0  0  0  0  0  0  0  0
  139.7036  151.1026  141.6212 C   0  0  0  0  0  0  0  0  0  0  0  0
  136.7239  150.4190  144.0179 C   0  0  0  0  0  0  0  0  0  0  0  0
  137.9015  150.0241  142.3223 C   0  0  0  0  0  0  0  0  0  0  0  0
  138.2278  149.2932  141.1442 C   0  0  0  0  0  0  0  0  0  0  0  0
  136.9445  149.6821  143.0247 C   0  0  0  0  0  0  0  0  0  0  0  0
  139.4120  149.9686  140.5121 C   0  0  0  0  0  0  0  0  0  0  0  0
  140.1974  150.4358  139.6457 O   0  0  0  0  0  0  0  0  0  0  0  0
  137.1065  152.5181  145.4861 O   0  0  0  0  0  0  0  0  0  0  0  0
  136.6050  153.7299  145.1420 C   0  0  0  0  0  0  0  0  0  0  0  0
  1  2  1  0
  2  3  2  0
  1  4  1  0
  3  5  1  0
  1  6  2  0
  6  7  1  0
  5  8  2  0
  6  8  1  0
  4  9  1  0
  7  9  1  0
  9 10  1  0
  3 11  1  0
 11 12  1  0
M  END
$$$$
