
     RDKit          3D

 12 13  0  0  0  0  0  0  0  0999 V2000
  139.5546  150.5070  140.4440 C   0  0  0  0  0  0  0  0  0  0  0  0
  139.2168  150.0150  139.3722 C   0  0  0  0  0  0  0  0  0  0  0  0
  138.8581  150.3073  141.5852 C   0  0  0  0  0  0  0  0  0  0  0  0
  137.9799  149.2986  139.2370 C   0  0  0  0  0  0  0  0  0  0  0  0
  137.1575  149.1630  140.3909 C   0  0  0  0  0  0  0  0  0  0  0  0
  139.3383  150.9197  142.9169 C   0  0  0  0  0  0  0  0  0  0  0  0
  138.3080  151.0871  143.9346 C   0  0  0  0  0  0  0  0  0  0  0  0
  135.7334  148.7642  140.2438 C   0  0  0  0  0  0  0  0  0  0  0  0
  137.1254  150.5266  143.5545 C   0  0  0  0  0  0  0  0  0  0  0  0
  137.4926  149.8038  141.6077 C   0  0  0  0  0  0  0  0  0  0  0  0
  136.1224  150.7843  144.7051 C   0  0  0  0  0  0  0  0  0  0  0  0
  136.8163  149.9569  142.4547 N   0  0  0  0  0  0  0  0  0  0  0  0
  1  2  2  0
  1  3  1  0
  2  4  1  0
  4  5  2  0
  3  6  1  0
  6  7  2  0
  5  8  1  0
  7  9  1  0
  3 10  2  0
  5 10  1  0
  9 11  1  0
  9 12  2  0
 10 12  1  0
M  END
$$$$
