
     RDKit          3D

 12 12  0  0  0  0  0  0  0  0999 V2000
  138.9705  151.3131  142.5679 C   0  0  0  0  0  0  0  0  0  0  0  0
  138.6042  152.0888  143.2654 C   0  0  0  0  0  0  0  0  0  0  0  0
  137.6600  151.8318  144.0475 C   0  0  0  0  0  0  0  0  0  0  0  0
  136.5825  152.7511  144.5734 C   0  0  0  0  0  0  0  0  0  0  0  0
  135.5827  152.5121  145.5093 C   0  0  0  0  0  0  0  0  0  0  0  0
  139.9322  151.4080  141.3737 C   0  0  0  0  0  0  0  0  0  0  0  0
  135.6283  151.0416  145.7979 C   0  0  0  0  0  0  0  0  0  0  0  0
  137.2911  150.5061  144.5502 C   0  0  0  0  0  0  0  0  0  0  0  0
  139.6740  150.6670  140.2600 C   0  0  0  0  0  0  0  0  0  0  0  0
  134.5974  150.7455  146.8356 C   0  0  0  0  0  0  0  0  0  0  0  0
  136.3706  150.0826  145.4226 C   0  0  0  0  0  0  0  0  0  0  0  0
  140.5948  150.5021  139.2047 C   0  0  0  0  0  0  0  0  0  0  0  0
  1  2  2  3
  2  3  1  0
  3  4  1  0
  4  5  2  0
  1  6  1  0
  5  7  1  0
  3  8  2  0
  6  9  2  3
  7 10  1  0
  7 11  2  0
  8 11  1  0
  9 12  1  0
M  END
$$$$
