
     RDKit          3D

 12 13  0  0  0  0  0  0  0  0999 V2000
  138.9705  151.3131  142.5679 C   0  0  0  0  0  0  0  0  0  0  0  0
  138.6042  152.0888  143.2654 C   0  0  0  0  0  0  0  0  0  0  0  0
  137.6600  151.8318  144.0475 C   0  0  0  0  0  0  0  0  0  0  0  0
  139.9937  151.3538  141.4312 C   0  0  0  0  0  0  0  0  0  0  0  0
  137.4841  150.6607  144.8972 C   0  0  0  0  0  0  0  0  0  0  0  0
  139.6563  150.7262  140.2643 C   0  0  0  0  0  0  0  0  0  0  0  0
  138.5002  150.0432  140.1976 C   0  0  0  0  0  0  0  0  0  0  0  0
  138.1256  150.0241  142.1727 C   0  0  0  0  0  0  0  0  0  0  0  0
  137.7860  149.5471  141.1852 C   0  0  0  0  0  0  0  0  0  0  0  0
  137.3965  149.6778  143.7139 C   0  0  0  0  0  0  0  0  0  0  0  0
  138.1829  149.5439  138.8452 C   0  0  0  0  0  0  0  0  0  0  0  0
  138.7435  149.4945  137.7540 C   0  0  0  0  0  0  0  0  0  0  0  0
  1  2  2  0
  2  3  1  0
  1  4  1  0
  3  5  2  0
  4  6  2  0
  6  7  1  0
  1  8  1  0
  7  9  1  0
  8  9  1  0
  5 10  1  0
  8 10  2  0
  7 11  2  3
 11 12  1  0
M  END
$$$$
