
     RDKit          3D

 12 13  0  0  0  0  0  0  0  0999 V2000
  139.3423  149.9928  140.5892 C   0  0  0  0  0  0  0  0  0  0  0  0
  138.9530  149.9232  139.3662 C   0  0  0  0  0  0  0  0  0  0  0  0
  138.6126  150.1100  141.6424 C   0  0  0  0  0  0  0  0  0  0  0  0
  137.1875  149.8648  141.8313 C   0  0  0  0  0  0  0  0  0  0  0  0
  136.5143  149.7627  140.5785 C   0  0  0  0  0  0  0  0  0  0  0  0
  139.1422  150.4925  143.0862 C   0  0  0  0  0  0  0  0  0  0  0  0
  138.2697  151.1411  143.8764 C   0  0  0  0  0  0  0  0  0  0  0  0
  136.9541  151.0016  143.8143 C   0  0  0  0  0  0  0  0  0  0  0  0
  136.3226  150.3068  142.8356 C   0  0  0  0  0  0  0  0  0  0  0  0
  137.4491  149.6402  139.2169 C   0  0  0  0  0  0  0  0  0  0  0  0
  136.1087  151.6303  145.0698 C   0  0  0  0  0  0  0  0  0  0  0  0
  135.1209  152.2244  144.9430 C   0  0  0  0  0  0  0  0  0  0  0  0
  1  2  2  0
  1  3  1  0
  3  4  1  0
  4  5  2  0
  3  6  1  0
  6  7  2  0
  7  8  1  0
  4  9  1  0
  8  9  2  0
  2 10  1  0
  5 10  1  0
  8 11  1  0
 11 12  1  0
M  END
$$$$
