
     RDKit          3D

 12 13  0  0  0  0  0  0  0  0999 V2000
  138.9705  151.3131  142.5679 C   0  0  0  0  0  0  0  0  0  0  0  0
  138.6042  152.0888  143.2654 C   0  0  0  0  0  0  0  0  0  0  0  0
  137.4887  151.7640  144.1910 C   0  0  0  0  0  0  0  0  0  0  0  0
  139.9944  151.3872  141.4253 C   0  0  0  0  0  0  0  0  0  0  0  0
  137.1404  150.3706  144.0333 C   0  0  0  0  0  0  0  0  0  0  0  0
  139.6217  150.7332  140.2348 C   0  0  0  0  0  0  0  0  0  0  0  0
  138.5564  149.8224  140.4267 C   0  0  0  0  0  0  0  0  0  0  0  0
  138.3482  149.9743  142.1178 C   0  0  0  0  0  0  0  0  0  0  0  0
  136.6652  152.4211  145.1305 C   0  0  0  0  0  0  0  0  0  0  0  0
  136.8472  153.7583  145.3098 C   0  0  0  0  0  0  0  0  0  0  0  0
  137.5001  149.4163  143.0158 N   0  0  0  0  0  0  0  0  0  0  0  0
  135.6168  151.9634  145.4830 O   0  0  0  0  0  0  0  0  0  0  0  0
  1  2  1  0
  2  3  2  0
  1  4  1  0
  3  5  1  0
  4  6  2  0
  6  7  1  0
  1  8  2  0
  7  8  1  0
  3  9  1  0
  9 10  1  0
  5 11  2  0
  8 11  1  0
  9 12  2  0
M  END
$$$$
