
     RDKit          3D

 12 13  0  0  0  0  0  0  0  0999 V2000
  139.3949  150.7519  142.0137 C   0  0  0  0  0  0  0  0  0  0  0  0
  139.0649  150.4895  140.7536 C   0  0  0  0  0  0  0  0  0  0  0  0
  138.4480  150.6367  143.0431 C   0  0  0  0  0  0  0  0  0  0  0  0
  137.8334  149.9841  140.4385 C   0  0  0  0  0  0  0  0  0  0  0  0
  136.8172  149.7850  141.4636 C   0  0  0  0  0  0  0  0  0  0  0  0
  138.7926  151.0562  144.4368 C   0  0  0  0  0  0  0  0  0  0  0  0
  137.6189  151.6483  145.1213 C   0  0  0  0  0  0  0  0  0  0  0  0
  135.4025  149.5524  141.0431 C   0  0  0  0  0  0  0  0  0  0  0  0
  136.4095  151.5019  144.5277 C   0  0  0  0  0  0  0  0  0  0  0  0
  137.1415  150.4213  142.7351 C   0  0  0  0  0  0  0  0  0  0  0  0
  136.0590  150.8090  143.4886 C   0  0  0  0  0  0  0  0  0  0  0  0
  135.0778  152.4061  145.3400 Cl  0  0  0  0  0  0  0  0  0  0  0  0
  1  2  2  0
  1  3  1  0
  2  4  1  0
  4  5  2  0
  3  6  1  0
  6  7  2  0
  5  8  1  0
  7  9  1  0
  3 10  2  0
  5 10  1  0
  9 11  2  0
 10 11  1  0
  9 12  1  0
M  END
$$$$
