
     RDKit          3D

 12 12  0  0  0  0  0  0  0  0999 V2000
  140.3038  150.2150  139.4785 Cl  0  0  0  0  0  0  0  0  0  0  0  0
  138.6786  150.1874  140.5317 C   0  0  0  0  0  0  0  0  0  0  0  0
  137.6385  149.3840  140.0946 C   0  0  0  0  0  0  0  0  0  0  0  0
  139.2404  150.7160  141.5759 C   0  0  0  0  0  0  0  0  0  0  0  0
  138.2225  150.6931  142.6929 C   0  0  0  0  0  0  0  0  0  0  0  0
  136.9613  150.0836  142.4469 C   0  0  0  0  0  0  0  0  0  0  0  0
  135.9487  150.2526  143.4885 C   0  0  0  0  0  0  0  0  0  0  0  0
  136.3619  151.1927  144.4166 C   0  0  0  0  0  0  0  0  0  0  0  0
  135.7653  151.7694  145.4030 C   0  0  0  0  0  0  0  0  0  0  0  0
  134.4367  151.5110  145.8070 C   0  0  0  0  0  0  0  0  0  0  0  0
  136.5438  149.5832  141.0808 C   0  0  0  0  0  0  0  0  0  0  0  0
  136.1709  152.9256  146.2204 C   0  0  0  0  0  0  0  0  0  0  0  0
  1  2  1  0
  2  3  1  0
  2  4  2  0
  4  5  1  0
  5  6  2  0
  6  7  1  0
  7  8  1  0
  8  9  2  3
  9 10  1  0
  3 11  2  0
  6 11  1  0
  9 12  1  0
M  END
$$$$
