
     RDKit          3D

 12 13  0  0  0  0  0  0  0  0999 V2000
  140.3038  150.2150  139.4785 Cl  0  0  0  0  0  0  0  0  0  0  0  0
  138.6786  150.1874  140.5317 C   0  0  0  0  0  0  0  0  0  0  0  0
  137.6385  149.3840  140.0946 C   0  0  0  0  0  0  0  0  0  0  0  0
  136.4399  149.4579  140.8211 C   0  0  0  0  0  0  0  0  0  0  0  0
  139.1335  150.7559  141.5073 C   0  0  0  0  0  0  0  0  0  0  0  0
  138.1148  150.7992  142.6522 C   0  0  0  0  0  0  0  0  0  0  0  0
  135.1531  149.2335  140.4493 C   0  0  0  0  0  0  0  0  0  0  0  0
  138.4182  151.3986  143.9384 C   0  0  0  0  0  0  0  0  0  0  0  0
  136.7814  150.4866  142.9788 C   0  0  0  0  0  0  0  0  0  0  0  0
  136.2506  150.8831  144.2272 C   0  0  0  0  0  0  0  0  0  0  0  0
  135.8898  149.9825  142.0114 C   0  0  0  0  0  0  0  0  0  0  0  0
  137.1928  151.3562  144.7935 N   0  0  0  0  0  0  0  0  0  0  0  0
  1  2  1  0
  2  3  2  0
  3  4  1  0
  2  5  1  0
  5  6  2  0
  4  7  1  0
  6  8  1  0
  6  9  1  0
  9 10  2  0
  4 11  1  0
  9 11  1  0
  8 12  2  0
 10 12  1  0
M  END
$$$$
