
     RDKit          3D

  9  9  0  0  0  0  0  0  0  0999 V2000
  138.9705  151.3131  142.5679 C   0  0  0  0  0  0  0  0  0  0  0  0
  138.6042  152.0888  143.2654 C   0  0  0  0  0  0  0  0  0  0  0  0
  137.6273  151.7082  144.0681 C   0  0  0  0  0  0  0  0  0  0  0  0
  140.0295  151.3220  141.4158 C   0  0  0  0  0  0  0  0  0  0  0  0
  137.1764  150.3230  143.8753 C   0  0  0  0  0  0  0  0  0  0  0  0
  139.8138  150.4363  140.2790 C   0  0  0  0  0  0  0  0  0  0  0  0
  138.3534  149.9787  142.3813 C   0  0  0  0  0  0  0  0  0  0  0  0
  140.7301  150.7697  139.1345 C   0  0  0  0  0  0  0  0  0  0  0  0
  137.5328  149.5651  143.2689 C   0  0  0  0  0  0  0  0  0  0  0  0
  1  2  1  0
  2  3  2  0
  1  4  1  0
  3  5  1  0
  4  6  1  0
  1  7  2  0
  6  8  1  0
  5  9  2  0
  7  9  1  0
M  END
$$$$
