
     RDKit          3D

 13 14  0  0  0  0  0  0  0  0999 V2000
  140.3038  150.2150  139.4785 Cl  0  0  0  0  0  0  0  0  0  0  0  0
  138.6786  150.1874  140.5317 C   0  0  0  0  0  0  0  0  0  0  0  0
  137.6385  149.3840  140.0946 C   0  0  0  0  0  0  0  0  0  0  0  0
  139.2404  150.7160  141.5759 C   0  0  0  0  0  0  0  0  0  0  0  0
  138.3592  151.0512  142.3776 C   0  0  0  0  0  0  0  0  0  0  0  0
  136.9526  150.5124  142.2952 C   0  0  0  0  0  0  0  0  0  0  0  0
  138.4072  151.7168  143.9009 C   0  0  0  0  0  0  0  0  0  0  0  0
  135.8504  150.7944  143.2209 C   0  0  0  0  0  0  0  0  0  0  0  0
  137.4168  148.7668  138.9881 C   0  0  0  0  0  0  0  0  0  0  0  0
  137.4248  151.8168  144.7615 C   0  0  0  0  0  0  0  0  0  0  0  0
  136.5955  149.9165  141.0804 C   0  0  0  0  0  0  0  0  0  0  0  0
  136.1855  151.3952  144.4308 C   0  0  0  0  0  0  0  0  0  0  0  0
  134.8915  151.7009  145.4587 Cl  0  0  0  0  0  0  0  0  0  0  0  0
  1  2  1  0
  2  3  1  0
  2  4  2  0
  4  5  1  0
  5  6  2  0
  5  7  1  0
  6  8  1  0
  3  9  1  0
  7 10  2  0
  3 11  2  0
  6 11  1  0
  8 12  2  0
 10 12  1  0
 12 13  1  0
M  END
$$$$
