
     RDKit          3D

  9  8  0  0  0  0  0  0  0  0999 V2000
  138.9705  151.3131  142.5679 C   0  0  0  0  0  0  0  0  0  0  0  0
  138.6042  152.0888  143.2654 C   0  0  0  0  0  0  0  0  0  0  0  0
  139.7531  151.4376  141.3509 C   0  0  0  0  0  0  0  0  0  0  0  0
  137.7656  151.7117  144.3553 C   0  0  0  0  0  0  0  0  0  0  0  0
  139.6324  150.5460  140.2932 C   0  0  0  0  0  0  0  0  0  0  0  0
  137.0388  152.4681  145.2767 C   0  0  0  0  0  0  0  0  0  0  0  0
  137.2005  153.7850  145.2226 C   0  0  0  0  0  0  0  0  0  0  0  0
  140.3455  150.4545  139.0829 C   0  0  0  0  0  0  0  0  0  0  0  0
  135.7497  152.1443  145.3943 C   0  0  0  0  0  0  0  0  0  0  0  0
  1  2  1  0
  1  3  1  0
  2  4  2  3
  3  5  2  3
  4  6  1  0
  6  7  1  0
  5  8  1  0
  6  9  1  0
M  END
$$$$
