
     RDKit          3D

  9  9  0  0  0  0  0  0  0  0999 V2000
  140.3038  150.2150  139.4785 Cl  0  0  0  0  0  0  0  0  0  0  0  0
  138.6786  150.1874  140.5317 C   0  0  0  0  0  0  0  0  0  0  0  0
  137.6385  149.3840  140.0946 C   0  0  0  0  0  0  0  0  0  0  0  0
  138.8663  150.7187  141.4505 C   0  0  0  0  0  0  0  0  0  0  0  0
  138.3190  150.9399  142.2982 C   0  0  0  0  0  0  0  0  0  0  0  0
  136.6325  149.6167  140.7938 C   0  0  0  0  0  0  0  0  0  0  0  0
  136.5175  150.2329  142.0586 C   0  0  0  0  0  0  0  0  0  0  0  0
  139.1460  151.7569  143.6201 Cl  0  0  0  0  0  0  0  0  0  0  0  0
  137.3026  150.8849  142.7752 C   0  0  0  0  0  0  0  0  0  0  0  0
  1  2  1  0
  2  3  2  0
  2  4  1  0
  4  5  2  0
  3  6  1  0
  6  7  2  0
  5  8  1  0
  5  9  1  0
  7  9  1  0
M  END
$$$$
