
     RDKit          3D

 13 14  0  0  0  0  0  0  0  0999 V2000
  139.5546  150.5070  140.4440 C   0  0  0  0  0  0  0  0  0  0  0  0
  139.2168  150.0150  139.3722 C   0  0  0  0  0  0  0  0  0  0  0  0
  138.8581  150.3073  141.5852 C   0  0  0  0  0  0  0  0  0  0  0  0
  139.2290  150.3516  142.8905 C   0  0  0  0  0  0  0  0  0  0  0  0
  138.3519  151.0008  143.9747 C   0  0  0  0  0  0  0  0  0  0  0  0
  137.3998  151.4263  143.6194 C   0  0  0  0  0  0  0  0  0  0  0  0
  136.5329  152.2351  144.5998 C   0  0  0  0  0  0  0  0  0  0  0  0
  136.9466  151.2605  142.2215 C   0  0  0  0  0  0  0  0  0  0  0  0
  135.3507  151.6956  145.0820 C   0  0  0  0  0  0  0  0  0  0  0  0
  137.5740  150.6791  141.3291 C   0  0  0  0  0  0  0  0  0  0  0  0
  138.0288  149.3481  139.1430 C   0  0  0  0  0  0  0  0  0  0  0  0
  137.0258  150.0546  140.1449 C   0  0  0  0  0  0  0  0  0  0  0  0
  134.5627  152.4410  146.0780 C   0  0  0  0  0  0  0  0  0  0  0  0
  1  2  2  0
  1  3  1  0
  3  4  1  0
  4  5  2  0
  5  6  1  0
  6  7  1  0
  6  8  2  0
  7  9  2  3
  3 10  2  0
  8 10  1  0
  2 11  1  0
 10 12  1  0
 11 12  2  0
  9 13  1  0
M  END
$$$$
