
     RDKit          3D

 13 14  0  0  0  0  0  0  0  0999 V2000
  140.3038  150.2150  139.4785 Cl  0  0  0  0  0  0  0  0  0  0  0  0
  138.6786  150.1874  140.5317 C   0  0  0  0  0  0  0  0  0  0  0  0
  137.6385  149.3840  140.0946 C   0  0  0  0  0  0  0  0  0  0  0  0
  139.0347  150.8837  141.6176 C   0  0  0  0  0  0  0  0  0  0  0  0
  136.4870  149.4739  141.0114 C   0  0  0  0  0  0  0  0  0  0  0  0
  135.2468  148.9969  140.4739 C   0  0  0  0  0  0  0  0  0  0  0  0
  136.7778  150.2789  142.0941 C   0  0  0  0  0  0  0  0  0  0  0  0
  135.6337  150.4006  143.1290 C   0  0  0  0  0  0  0  0  0  0  0  0
  136.1409  151.1664  144.3898 C   0  0  0  0  0  0  0  0  0  0  0  0
  137.3706  150.7740  144.7332 C   0  0  0  0  0  0  0  0  0  0  0  0
  135.4370  152.1466  145.0649 C   0  0  0  0  0  0  0  0  0  0  0  0
  138.5121  150.9494  143.7889 C   0  0  0  0  0  0  0  0  0  0  0  0
  138.0517  150.6889  142.5694 C   0  0  0  0  0  0  0  0  0  0  0  0
  1  2  1  0
  2  3  2  0
  2  4  1  0
  3  5  1  0
  5  6  1  0
  5  7  2  0
  7  8  1  0
  8  9  1  0
  9 10  2  0
  9 11  1  0
 10 12  1  0
  4 13  2  0
  7 13  1  0
 12 13  1  0
M  END
$$$$
