
     RDKit          3D

  9  9  0  0  0  0  0  0  0  0999 V2000
  140.3038  150.2150  139.4785 Cl  0  0  0  0  0  0  0  0  0  0  0  0
  138.6786  150.1874  140.5317 C   0  0  0  0  0  0  0  0  0  0  0  0
  137.6385  149.3840  140.0946 C   0  0  0  0  0  0  0  0  0  0  0  0
  138.8663  150.7187  141.4505 C   0  0  0  0  0  0  0  0  0  0  0  0
  137.5305  148.8053  138.7973 C   0  0  0  0  0  0  0  0  0  0  0  0
  136.5357  149.6033  140.9589 C   0  0  0  0  0  0  0  0  0  0  0  0
  136.5810  150.3199  142.1372 C   0  0  0  0  0  0  0  0  0  0  0  0
  137.7633  150.9472  142.4536 C   0  0  0  0  0  0  0  0  0  0  0  0
  137.8354  151.7440  143.8834 C   0  0  0  0  0  0  0  0  0  0  0  0
  1  2  1  0
  2  3  2  0
  2  4  1  0
  3  5  1  0
  3  6  1  0
  6  7  2  0
  4  8  2  0
  7  8  1  0
  8  9  1  0
M  END
$$$$
