
     RDKit          3D

 13 14  0  0  0  0  0  0  0  0999 V2000
  140.3038  150.2150  139.4785 Cl  0  0  0  0  0  0  0  0  0  0  0  0
  138.6786  150.1874  140.5317 C   0  0  0  0  0  0  0  0  0  0  0  0
  137.6385  149.3840  140.0946 C   0  0  0  0  0  0  0  0  0  0  0  0
  138.8663  150.7187  141.4505 C   0  0  0  0  0  0  0  0  0  0  0  0
  136.5679  149.5915  140.7717 C   0  0  0  0  0  0  0  0  0  0  0  0
  135.2802  149.0558  140.2099 C   0  0  0  0  0  0  0  0  0  0  0  0
  136.6063  150.4574  141.8322 C   0  0  0  0  0  0  0  0  0  0  0  0
  135.4286  150.7337  142.7297 C   0  0  0  0  0  0  0  0  0  0  0  0
  135.9364  151.5296  143.9345 C   0  0  0  0  0  0  0  0  0  0  0  0
  135.1724  151.8786  145.0130 C   0  0  0  0  0  0  0  0  0  0  0  0
  137.8575  151.0382  142.2914 C   0  0  0  0  0  0  0  0  0  0  0  0
  137.3081  151.8511  143.9516 C   0  0  0  0  0  0  0  0  0  0  0  0
  135.7328  152.8770  145.9517 C   0  0  0  0  0  0  0  0  0  0  0  0
  1  2  1  0
  2  3  2  0
  2  4  1  0
  3  5  1  0
  5  6  1  0
  5  7  2  0
  7  8  1  0
  8  9  2  0
  9 10  1  0
  4 11  2  0
  7 11  1  0
  9 12  1  0
 11 12  1  0
 10 13  1  0
M  END
$$$$
