
     RDKit          3D

 13 14  0  0  0  0  0  0  0  0999 V2000
  140.3038  150.2150  139.4785 Cl  0  0  0  0  0  0  0  0  0  0  0  0
  138.6786  150.1874  140.5317 C   0  0  0  0  0  0  0  0  0  0  0  0
  137.6385  149.3840  140.0946 C   0  0  0  0  0  0  0  0  0  0  0  0
  138.7506  150.9507  141.6713 C   0  0  0  0  0  0  0  0  0  0  0  0
  136.5527  149.6212  140.7745 C   0  0  0  0  0  0  0  0  0  0  0  0
  135.2919  149.0327  140.1418 C   0  0  0  0  0  0  0  0  0  0  0  0
  136.5287  150.4782  141.8364 C   0  0  0  0  0  0  0  0  0  0  0  0
  135.3193  150.6924  142.7156 C   0  0  0  0  0  0  0  0  0  0  0  0
  135.7668  151.4926  143.9256 C   0  0  0  0  0  0  0  0  0  0  0  0
  137.7598  151.1044  142.3481 C   0  0  0  0  0  0  0  0  0  0  0  0
  137.6868  151.8625  143.6418 S   0  0  0  0  0  0  0  0  0  0  0  0
  134.3772  151.5932  144.8401 Cl  0  0  0  0  0  0  0  0  0  0  0  0
  136.6399  152.0865  144.5531 C   0  0  0  0  0  0  0  0  0  0  0  0
  1  2  1  0
  2  3  2  0
  2  4  1  0
  3  5  1  0
  5  6  1  0
  5  7  2  0
  7  8  1  0
  8  9  2  0
  4 10  2  0
  7 10  1  0
 10 11  1  0
  9 12  1  0
  9 13  1  0
 11 13  2  0
M  END
$$$$
