
     RDKit          3D

 13 14  0  0  0  0  0  0  0  0999 V2000
  140.3038  150.2150  139.4785 Cl  0  0  0  0  0  0  0  0  0  0  0  0
  138.6786  150.1874  140.5317 C   0  0  0  0  0  0  0  0  0  0  0  0
  137.6385  149.3840  140.0946 C   0  0  0  0  0  0  0  0  0  0  0  0
  136.4399  149.4579  140.8211 C   0  0  0  0  0  0  0  0  0  0  0  0
  138.9830  150.6971  141.6805 C   0  0  0  0  0  0  0  0  0  0  0  0
  138.2331  150.9043  142.4752 C   0  0  0  0  0  0  0  0  0  0  0  0
  138.4970  151.5655  143.8665 C   0  0  0  0  0  0  0  0  0  0  0  0
  136.7758  150.4940  142.6016 C   0  0  0  0  0  0  0  0  0  0  0  0
  136.1550  151.1059  143.8266 C   0  0  0  0  0  0  0  0  0  0  0  0
  135.3840  148.8645  139.8139 C   0  0  0  0  0  0  0  0  0  0  0  0
  137.0240  151.5020  144.6828 C   0  0  0  0  0  0  0  0  0  0  0  0
  136.0400  150.1325  141.8432 C   0  0  0  0  0  0  0  0  0  0  0  0
  137.3033  150.8556  145.8108 O   0  0  0  0  0  0  0  0  0  0  0  0
  1  2  1  0
  2  3  2  0
  3  4  1  0
  2  5  1  0
  5  6  2  0
  6  7  1  0
  6  8  1  0
  8  9  1  0
  4 10  1  0
  7 11  1  0
  9 11  1  0
  4 12  1  0
  8 12  1  0
 11 13  1  0
M  END
$$$$
