
     RDKit          3D

 13 14  0  0  0  0  0  0  0  0999 V2000
  139.5546  150.5070  140.4440 C   0  0  0  0  0  0  0  0  0  0  0  0
  139.2168  150.0150  139.3722 C   0  0  0  0  0  0  0  0  0  0  0  0
  138.8581  150.3073  141.5852 C   0  0  0  0  0  0  0  0  0  0  0  0
  139.2290  150.3516  142.8905 C   0  0  0  0  0  0  0  0  0  0  0  0
  138.3519  151.0008  143.9747 C   0  0  0  0  0  0  0  0  0  0  0  0
  137.3998  151.4263  143.6194 C   0  0  0  0  0  0  0  0  0  0  0  0
  136.5329  152.2351  144.5998 C   0  0  0  0  0  0  0  0  0  0  0  0
  136.9653  151.2809  142.2541 C   0  0  0  0  0  0  0  0  0  0  0  0
  137.8282  149.6218  139.1911 C   0  0  0  0  0  0  0  0  0  0  0  0
  136.9829  153.3560  145.1657 O   0  0  0  0  0  0  0  0  0  0  0  0
  137.6777  150.5950  141.4525 C   0  0  0  0  0  0  0  0  0  0  0  0
  135.4597  151.8167  144.9937 O   0  0  0  0  0  0  0  0  0  0  0  0
  136.9499  150.0366  140.2331 C   0  0  0  0  0  0  0  0  0  0  0  0
  1  2  2  0
  1  3  1  0
  3  4  1  0
  4  5  2  0
  5  6  1  0
  6  7  1  0
  6  8  2  0
  2  9  1  0
  7 10  1  0
  3 11  2  0
  8 11  1  0
  7 12  2  0
  9 13  2  0
 11 13  1  0
M  END
$$$$
