
     RDKit          3D

 13 14  0  0  0  0  0  0  0  0999 V2000
  138.9705  151.3131  142.5679 C   0  0  0  0  0  0  0  0  0  0  0  0
  138.6042  152.0888  143.2654 C   0  0  0  0  0  0  0  0  0  0  0  0
  137.4887  151.7640  144.1910 C   0  0  0  0  0  0  0  0  0  0  0  0
  139.9944  151.3872  141.4253 C   0  0  0  0  0  0  0  0  0  0  0  0
  137.1404  150.3706  144.0333 C   0  0  0  0  0  0  0  0  0  0  0  0
  139.6217  150.7332  140.2348 C   0  0  0  0  0  0  0  0  0  0  0  0
  138.5564  149.8224  140.4267 C   0  0  0  0  0  0  0  0  0  0  0  0
  138.3482  149.9743  142.1178 C   0  0  0  0  0  0  0  0  0  0  0  0
  137.4816  149.4481  143.0490 C   0  0  0  0  0  0  0  0  0  0  0  0
  137.0058  152.5453  145.2259 C   0  0  0  0  0  0  0  0  0  0  0  0
  135.7147  152.3163  145.7427 C   0  0  0  0  0  0  0  0  0  0  0  0
  135.1865  151.2261  145.7863 C   0  0  0  0  0  0  0  0  0  0  0  0
  134.8423  153.3650  146.0837 C   0  0  0  0  0  0  0  0  0  0  0  0
  1  2  1  0
  2  3  2  0
  1  4  1  0
  3  5  1  0
  4  6  2  0
  6  7  1  0
  1  8  2  0
  7  8  1  0
  5  9  2  0
  8  9  1  0
  3 10  1  0
 10 11  1  0
 11 12  2  0
 11 13  1  0
M  END
$$$$
