
     RDKit          3D

 13 14  0  0  0  0  0  0  0  0999 V2000
  140.3038  150.2150  139.4785 Cl  0  0  0  0  0  0  0  0  0  0  0  0
  138.6786  150.1874  140.5317 C   0  0  0  0  0  0  0  0  0  0  0  0
  137.6385  149.3840  140.0946 C   0  0  0  0  0  0  0  0  0  0  0  0
  138.8663  150.7187  141.4505 C   0  0  0  0  0  0  0  0  0  0  0  0
  136.5679  149.5915  140.7717 C   0  0  0  0  0  0  0  0  0  0  0  0
  135.2802  149.0558  140.2099 C   0  0  0  0  0  0  0  0  0  0  0  0
  136.6063  150.4574  141.8322 C   0  0  0  0  0  0  0  0  0  0  0  0
  135.4286  150.7337  142.7297 C   0  0  0  0  0  0  0  0  0  0  0  0
  137.7725  151.0495  142.3401 C   0  0  0  0  0  0  0  0  0  0  0  0
  137.9814  151.8089  143.5885 C   0  0  0  0  0  0  0  0  0  0  0  0
  135.6438  151.3324  143.9797 C   0  0  0  0  0  0  0  0  0  0  0  0
  136.6600  151.8211  144.3949 C   0  0  0  0  0  0  0  0  0  0  0  0
  136.5992  152.5776  145.8999 C   0  0  0  0  0  0  0  0  0  0  0  0
  1  2  1  0
  2  3  2  0
  2  4  1  0
  3  5  1  0
  5  6  1  0
  5  7  2  0
  7  8  1  0
  4  9  2  0
  7  9  1  0
  9 10  1  0
  8 11  2  0
 10 12  2  0
 11 12  1  0
 12 13  1  0
M  END
$$$$
