
     RDKit          3D

 13 14  0  0  0  0  0  0  0  0999 V2000
  140.3038  150.2150  139.4785 Cl  0  0  0  0  0  0  0  0  0  0  0  0
  138.6786  150.1874  140.5317 C   0  0  0  0  0  0  0  0  0  0  0  0
  137.6385  149.3840  140.0946 C   0  0  0  0  0  0  0  0  0  0  0  0
  138.8663  150.7187  141.4505 C   0  0  0  0  0  0  0  0  0  0  0  0
  137.8215  150.8029  142.5157 C   0  0  0  0  0  0  0  0  0  0  0  0
  136.6690  150.0407  142.1961 C   0  0  0  0  0  0  0  0  0  0  0  0
  137.4948  148.7965  138.8646 C   0  0  0  0  0  0  0  0  0  0  0  0
  138.1406  151.5013  143.8293 C   0  0  0  0  0  0  0  0  0  0  0  0
  135.6019  150.3310  143.2316 C   0  0  0  0  0  0  0  0  0  0  0  0
  136.4670  149.5684  141.0223 C   0  0  0  0  0  0  0  0  0  0  0  0
  136.0081  151.1975  144.3703 C   0  0  0  0  0  0  0  0  0  0  0  0
  134.8782  151.4527  145.3885 C   0  0  0  0  0  0  0  0  0  0  0  0
  137.1698  151.4888  144.5223 N   0  0  0  0  0  0  0  0  0  0  0  0
  1  2  1  0
  2  3  2  0
  2  4  1  0
  4  5  2  0
  5  6  1  0
  3  7  1  0
  5  8  1  0
  6  9  1  0
  3 10  1  0
  6 10  2  0
  9 11  1  0
 11 12  1  0
  8 13  1  0
 11 13  2  0
M  END
$$$$
