
     RDKit          3D

 14 15  0  0  0  0  0  0  0  0999 V2000
  139.3423  149.9928  140.5892 C   0  0  0  0  0  0  0  0  0  0  0  0
  138.9530  149.9232  139.3662 C   0  0  0  0  0  0  0  0  0  0  0  0
  138.6126  150.1100  141.6424 C   0  0  0  0  0  0  0  0  0  0  0  0
  137.1875  149.8648  141.8313 C   0  0  0  0  0  0  0  0  0  0  0  0
  136.5143  149.7627  140.5785 C   0  0  0  0  0  0  0  0  0  0  0  0
  139.1751  150.3995  143.1329 C   0  0  0  0  0  0  0  0  0  0  0  0
  138.2221  150.9725  144.0846 C   0  0  0  0  0  0  0  0  0  0  0  0
  136.9301  150.9606  143.8481 C   0  0  0  0  0  0  0  0  0  0  0  0
  139.8133  149.9572  138.2292 C   0  0  0  0  0  0  0  0  0  0  0  0
  136.9624  149.6545  139.2592 C   0  0  0  0  0  0  0  0  0  0  0  0
  138.0346  149.7781  138.7022 C   0  0  0  0  0  0  0  0  0  0  0  0
  136.3037  150.4691  142.9677 C   0  0  0  0  0  0  0  0  0  0  0  0
  136.1159  151.6302  145.1660 C   0  0  0  0  0  0  0  0  0  0  0  0
  134.8893  151.6653  145.1385 C   0  0  0  0  0  0  0  0  0  0  0  0
  1  2  2  0
  1  3  1  0
  3  4  1  0
  4  5  2  0
  3  6  1  0
  6  7  2  0
  7  8  1  0
  2  9  1  0
  5 10  1  0
  2 11  1  0
 10 11  2  0
  4 12  1  0
  8 12  2  0
  8 13  1  0
 13 14  2  0
M  END
$$$$
