
     RDKit          3D

 14 15  0  0  0  0  0  0  0  0999 V2000
  139.3423  149.9928  140.5892 C   0  0  0  0  0  0  0  0  0  0  0  0
  138.9530  149.9232  139.3662 C   0  0  0  0  0  0  0  0  0  0  0  0
  138.6126  150.1100  141.6424 C   0  0  0  0  0  0  0  0  0  0  0  0
  137.1875  149.8648  141.8313 C   0  0  0  0  0  0  0  0  0  0  0  0
  136.5143  149.7627  140.5785 C   0  0  0  0  0  0  0  0  0  0  0  0
  139.1751  150.3995  143.1329 C   0  0  0  0  0  0  0  0  0  0  0  0
  138.2221  150.9725  144.0846 C   0  0  0  0  0  0  0  0  0  0  0  0
  136.9301  150.9606  143.8481 C   0  0  0  0  0  0  0  0  0  0  0  0
  136.1638  151.4606  145.0548 C   0  0  0  0  0  0  0  0  0  0  0  0
  136.5126  151.4248  146.3426 C   0  0  0  0  0  0  0  0  0  0  0  0
  136.3963  149.9827  142.9278 C   0  0  0  0  0  0  0  0  0  0  0  0
  139.7823  149.9247  138.2203 C   0  0  0  0  0  0  0  0  0  0  0  0
  135.3372  152.5431  145.0829 C   0  0  0  0  0  0  0  0  0  0  0  0
  137.4392  149.7229  139.3318 C   0  0  0  0  0  0  0  0  0  0  0  0
  1  2  2  0
  1  3  1  0
  3  4  1  0
  4  5  2  0
  3  6  1  0
  6  7  2  0
  7  8  1  0
  8  9  1  0
  9 10  1  0
  4 11  1  0
  8 11  1  0
  2 12  1  0
  9 13  1  0
  2 14  1  0
  5 14  1  0
M  END
$$$$
