
     RDKit          3D

  9  9  0  0  0  0  0  0  0  0999 V2000
  139.3423  149.9928  140.5892 C   0  0  0  0  0  0  0  0  0  0  0  0
  138.9530  149.9232  139.3662 C   0  0  0  0  0  0  0  0  0  0  0  0
  138.6126  150.1100  141.6424 C   0  0  0  0  0  0  0  0  0  0  0  0
  137.1875  149.8648  141.8313 C   0  0  0  0  0  0  0  0  0  0  0  0
  136.5143  149.7627  140.5785 C   0  0  0  0  0  0  0  0  0  0  0  0
  139.1985  150.3843  143.0722 C   0  0  0  0  0  0  0  0  0  0  0  0
  137.4123  149.7222  139.1861 C   0  0  0  0  0  0  0  0  0  0  0  0
  138.2478  150.9251  144.1016 C   0  0  0  0  0  0  0  0  0  0  0  0
  137.5007  150.3059  144.8093 C   0  0  0  0  0  0  0  0  0  0  0  0
  1  2  2  0
  1  3  1  0
  3  4  1  0
  4  5  2  0
  3  6  1  0
  2  7  1  0
  5  7  1  0
  6  8  1  0
  8  9  2  0
M  END
$$$$
