
     RDKit          3D

 14 15  0  0  0  0  0  0  0  0999 V2000
  139.5546  150.5070  140.4440 C   0  0  0  0  0  0  0  0  0  0  0  0
  139.2168  150.0150  139.3722 C   0  0  0  0  0  0  0  0  0  0  0  0
  138.8581  150.3073  141.5852 C   0  0  0  0  0  0  0  0  0  0  0  0
  139.2290  150.3516  142.8905 C   0  0  0  0  0  0  0  0  0  0  0  0
  138.3519  151.0008  143.9747 C   0  0  0  0  0  0  0  0  0  0  0  0
  137.3998  151.4263  143.6194 C   0  0  0  0  0  0  0  0  0  0  0  0
  136.5329  152.2351  144.5998 C   0  0  0  0  0  0  0  0  0  0  0  0
  137.8483  149.5152  139.3347 C   0  0  0  0  0  0  0  0  0  0  0  0
  137.0061  151.1934  142.2679 C   0  0  0  0  0  0  0  0  0  0  0  0
  137.2884  149.0249  138.2611 C   0  0  0  0  0  0  0  0  0  0  0  0
  137.1232  149.7392  140.5541 C   0  0  0  0  0  0  0  0  0  0  0  0
  135.3622  151.6924  145.0884 C   0  0  0  0  0  0  0  0  0  0  0  0
  137.4982  150.4456  141.5513 C   0  0  0  0  0  0  0  0  0  0  0  0
  137.0064  153.1818  145.1713 O   0  0  0  0  0  0  0  0  0  0  0  0
  1  2  2  0
  1  3  1  0
  3  4  1  0
  4  5  2  0
  5  6  1  0
  6  7  1  0
  2  8  1  0
  6  9  2  0
  8 10  2  0
  8 11  1  0
  7 12  1  0
  3 13  1  0
  9 13  1  0
 11 13  2  0
  7 14  2  0
M  END
$$$$
