
     RDKit          3D

 14 15  0  0  0  0  0  0  0  0999 V2000
  140.3038  150.2150  139.4785 Cl  0  0  0  0  0  0  0  0  0  0  0  0
  138.6786  150.1874  140.5317 C   0  0  0  0  0  0  0  0  0  0  0  0
  137.6385  149.3840  140.0946 C   0  0  0  0  0  0  0  0  0  0  0  0
  139.2404  150.7160  141.5759 C   0  0  0  0  0  0  0  0  0  0  0  0
  138.3592  151.0512  142.3776 C   0  0  0  0  0  0  0  0  0  0  0  0
  136.9526  150.5124  142.2952 C   0  0  0  0  0  0  0  0  0  0  0  0
  138.4072  151.7168  143.9009 C   0  0  0  0  0  0  0  0  0  0  0  0
  137.3935  148.7832  139.0047 C   0  0  0  0  0  0  0  0  0  0  0  0
  135.9042  150.8550  143.2900 C   0  0  0  0  0  0  0  0  0  0  0  0
  136.5817  149.8744  141.0868 C   0  0  0  0  0  0  0  0  0  0  0  0
  137.2996  151.8292  144.5257 C   0  0  0  0  0  0  0  0  0  0  0  0
  136.0933  151.4210  144.3571 C   0  0  0  0  0  0  0  0  0  0  0  0
  135.0912  151.7999  145.3207 C   0  0  0  0  0  0  0  0  0  0  0  0
  135.4191  152.5092  146.2944 C   0  0  0  0  0  0  0  0  0  0  0  0
  1  2  1  0
  2  3  1  0
  2  4  2  0
  4  5  1  0
  5  6  2  0
  5  7  1  0
  3  8  1  0
  6  9  1  0
  3 10  2  0
  6 10  1  0
  7 11  2  0
  9 12  2  0
 11 12  1  0
 12 13  1  0
 13 14  1  0
M  END
$$$$
