
     RDKit          3D

 15 16  0  0  0  0  0  0  0  0999 V2000
  138.9705  151.3131  142.5679 C   0  0  0  0  0  0  0  0  0  0  0  0
  138.6042  152.0888  143.2654 C   0  0  0  0  0  0  0  0  0  0  0  0
  137.4887  151.7640  144.1910 C   0  0  0  0  0  0  0  0  0  0  0  0
  137.1673  150.4135  144.2710 C   0  0  0  0  0  0  0  0  0  0  0  0
  136.7837  152.6380  145.0886 C   0  0  0  0  0  0  0  0  0  0  0  0
  138.5889  149.8386  142.4057 C   0  0  0  0  0  0  0  0  0  0  0  0
  137.0939  153.8636  145.1629 C   0  0  0  0  0  0  0  0  0  0  0  0
  139.0958  149.0319  141.4957 C   0  0  0  0  0  0  0  0  0  0  0  0
  138.9655  149.3989  140.0909 C   0  0  0  0  0  0  0  0  0  0  0  0
  135.6272  152.1482  145.6705 C   0  0  0  0  0  0  0  0  0  0  0  0
  135.4044  150.8287  145.6572 C   0  0  0  0  0  0  0  0  0  0  0  0
  137.5699  149.5354  143.3308 N   0  0  0  0  0  0  0  0  0  0  0  0
  139.4181  150.3514  139.5313 C   0  0  0  0  0  0  0  0  0  0  0  0
  135.0544  153.2417  146.3026 C   0  0  0  0  0  0  0  0  0  0  0  0
  136.1270  150.0298  145.1076 N   0  0  0  0  0  0  0  0  0  0  0  0
  1  2  1  0
  2  3  2  0
  3  4  1  0
  3  5  1  0
  1  6  2  0
  5  7  1  0
  6  8  1  0
  8  9  1  0
  5 10  2  0
 10 11  1  0
  4 12  1  0
  6 12  1  0
  9 13  2  0
 10 14  1  0
  4 15  2  0
 11 15  1  0
M  END
$$$$
