
     RDKit          3D

 15 16  0  0  0  0  0  0  0  0999 V2000
  139.3423  149.9928  140.5892 C   0  0  0  0  0  0  0  0  0  0  0  0
  138.9530  149.9232  139.3662 C   0  0  0  0  0  0  0  0  0  0  0  0
  138.6126  150.1100  141.6424 C   0  0  0  0  0  0  0  0  0  0  0  0
  137.1875  149.8648  141.8313 C   0  0  0  0  0  0  0  0  0  0  0  0
  136.5143  149.7627  140.5785 C   0  0  0  0  0  0  0  0  0  0  0  0
  139.1422  150.4925  143.0862 C   0  0  0  0  0  0  0  0  0  0  0  0
  138.1958  151.0001  144.0544 C   0  0  0  0  0  0  0  0  0  0  0  0
  136.7353  150.3949  143.0646 C   0  0  0  0  0  0  0  0  0  0  0  0
  135.1509  149.5438  140.5010 C   0  0  0  0  0  0  0  0  0  0  0  0
  137.0479  150.7366  144.0791 C   0  0  0  0  0  0  0  0  0  0  0  0
  136.2437  151.3811  145.2333 C   0  0  0  0  0  0  0  0  0  0  0  0
  136.6210  151.6820  146.4242 C   0  0  0  0  0  0  0  0  0  0  0  0
  135.2867  152.0399  144.8283 C   0  0  0  0  0  0  0  0  0  0  0  0
  139.7117  149.9092  138.2051 C   0  0  0  0  0  0  0  0  0  0  0  0
  137.4068  149.6689  139.2933 C   0  0  0  0  0  0  0  0  0  0  0  0
  1  2  2  0
  1  3  1  0
  3  4  1  0
  4  5  2  0
  3  6  1  0
  6  7  2  0
  4  8  1  0
  5  9  1  0
  7 10  1  0
  8 10  2  0
 10 11  1  0
 11 12  1  0
 11 13  1  0
  2 14  1  0
  2 15  1  0
  5 15  1  0
M  END
$$$$
