
     RDKit          3D

 15 16  0  0  0  0  0  0  0  0999 V2000
  139.5546  150.5070  140.4440 C   0  0  0  0  0  0  0  0  0  0  0  0
  139.2168  150.0150  139.3722 C   0  0  0  0  0  0  0  0  0  0  0  0
  138.8581  150.3073  141.5852 C   0  0  0  0  0  0  0  0  0  0  0  0
  139.2290  150.3516  142.8905 C   0  0  0  0  0  0  0  0  0  0  0  0
  138.3519  151.0008  143.9747 C   0  0  0  0  0  0  0  0  0  0  0  0
  137.3998  151.4263  143.6194 C   0  0  0  0  0  0  0  0  0  0  0  0
  136.5329  152.2351  144.5998 C   0  0  0  0  0  0  0  0  0  0  0  0
  140.0211  149.8480  138.1416 C   0  0  0  0  0  0  0  0  0  0  0  0
  136.9530  151.2219  142.2408 C   0  0  0  0  0  0  0  0  0  0  0  0
  137.5310  150.6139  141.3916 C   0  0  0  0  0  0  0  0  0  0  0  0
  136.9561  153.4364  145.0757 C   0  0  0  0  0  0  0  0  0  0  0  0
  135.6475  151.7148  145.2364 C   0  0  0  0  0  0  0  0  0  0  0  0
  135.1279  152.4183  146.2321 C   0  0  0  0  0  0  0  0  0  0  0  0
  134.1755  152.0916  147.2106 C   0  0  0  0  0  0  0  0  0  0  0  0
  135.7609  153.5092  146.2120 C   0  0  0  0  0  0  0  0  0  0  0  0
  1  2  2  3
  1  3  1  0
  3  4  1  0
  4  5  2  0
  5  6  1  0
  6  7  1  0
  2  8  1  0
  6  9  2  0
  3 10  2  0
  9 10  1  0
  7 11  1  0
  7 12  2  0
 12 13  1  0
 13 14  1  0
 11 15  1  0
 13 15  2  0
M  END
$$$$
