
     RDKit          3D

  9  9  0  0  0  0  0  0  0  0999 V2000
  139.3423  149.9928  140.5892 C   0  0  0  0  0  0  0  0  0  0  0  0
  138.9530  149.9232  139.3662 C   0  0  0  0  0  0  0  0  0  0  0  0
  138.6126  150.1100  141.6424 C   0  0  0  0  0  0  0  0  0  0  0  0
  137.1875  149.8648  141.8313 C   0  0  0  0  0  0  0  0  0  0  0  0
  136.4687  150.2670  142.9657 C   0  0  0  0  0  0  0  0  0  0  0  0
  137.3880  150.8137  143.7442 C   0  0  0  0  0  0  0  0  0  0  0  0
  137.1521  151.3621  145.1126 C   0  0  0  0  0  0  0  0  0  0  0  0
  138.9063  150.5654  143.1016 C   0  0  0  0  0  0  0  0  0  0  0  0
  140.7049  150.3434  140.7337 C   0  0  0  0  0  0  0  0  0  0  0  0
  1  2  2  0
  1  3  1  0
  3  4  1  0
  4  5  2  0
  5  6  1  0
  6  7  1  0
  3  8  1  0
  6  8  2  0
  1  9  1  0
M  END
$$$$
