
     RDKit          3D

 10 11  0  0  0  0  0  0  0  0999 V2000
  139.2621  151.0930  142.4042 C   0  0  0  0  0  0  0  0  0  0  0  0
  138.8616  152.1304  142.9039 C   0  0  0  0  0  0  0  0  0  0  0  0
  137.7832  151.8907  143.8937 C   0  0  0  0  0  0  0  0  0  0  0  0
  138.6288  149.7794  142.4933 C   0  0  0  0  0  0  0  0  0  0  0  0
  137.6140  149.6944  143.4740 C   0  0  0  0  0  0  0  0  0  0  0  0
  137.3772  153.1123  144.6944 C   0  0  0  0  0  0  0  0  0  0  0  0
  136.1211  153.0614  145.3871 C   0  0  0  0  0  0  0  0  0  0  0  0
  137.2234  150.6261  144.1997 C   0  0  0  0  0  0  0  0  0  0  0  0
  135.2879  151.9375  145.4390 C   0  0  0  0  0  0  0  0  0  0  0  0
  136.2521  150.5668  145.2393 C   0  0  0  0  0  0  0  0  0  0  0  0
  1  2  1  0
  2  3  2  0
  1  4  2  0
  4  5  1  0
  3  6  1  0
  6  7  2  0
  3  8  1  0
  5  8  2  0
  7  9  1  0
  8 10  1  0
  9 10  1  0
M  END
$$$$
