
     RDKit          3D

 10 11  0  0  0  0  0  0  0  0999 V2000
  138.9705  151.3131  142.5679 C   0  0  0  0  0  0  0  0  0  0  0  0
  138.6042  152.0888  143.2654 C   0  0  0  0  0  0  0  0  0  0  0  0
  137.4887  151.7640  144.1910 C   0  0  0  0  0  0  0  0  0  0  0  0
  139.9944  151.3872  141.4253 C   0  0  0  0  0  0  0  0  0  0  0  0
  139.7073  150.7352  140.2228 C   0  0  0  0  0  0  0  0  0  0  0  0
  137.0842  150.3806  143.9221 C   0  0  0  0  0  0  0  0  0  0  0  0
  138.4486  149.8974  142.0944 C   0  0  0  0  0  0  0  0  0  0  0  0
  137.4978  149.5509  142.9809 C   0  0  0  0  0  0  0  0  0  0  0  0
  138.9566  149.4355  140.8971 C   0  0  0  0  0  0  0  0  0  0  0  0
  136.8598  152.6323  145.2539 C   0  0  0  0  0  0  0  0  0  0  0  0
  1  2  1  0
  2  3  2  0
  1  4  1  0
  4  5  2  0
  3  6  1  0
  1  7  2  0
  6  8  2  0
  7  8  1  0
  5  9  1  0
  7  9  1  0
  3 10  1  0
M  END
$$$$
