
     RDKit          3D

 10 10  0  0  0  0  0  0  0  0999 V2000
  139.2621  151.0930  142.4042 C   0  0  0  0  0  0  0  0  0  0  0  0
  138.8616  152.1304  142.9039 C   0  0  0  0  0  0  0  0  0  0  0  0
  137.9119  151.7966  143.7821 C   0  0  0  0  0  0  0  0  0  0  0  0
  138.8318  150.4014  141.6013 C   0  0  0  0  0  0  0  0  0  0  0  0
  137.6882  149.9441  141.7473 C   0  0  0  0  0  0  0  0  0  0  0  0
  136.7295  151.0149  143.4791 C   0  0  0  0  0  0  0  0  0  0  0  0
  137.1335  149.1046  140.5445 C   0  0  0  0  0  0  0  0  0  0  0  0
  136.6451  150.2326  142.4949 C   0  0  0  0  0  0  0  0  0  0  0  0
  135.7340  151.3374  144.5323 C   0  0  0  0  0  0  0  0  0  0  0  0
  135.4145  150.8069  145.5213 C   0  0  0  0  0  0  0  0  0  0  0  0
  1  2  1  0
  2  3  2  0
  1  4  2  0
  4  5  1  0
  3  6  1  0
  5  7  1  0
  5  8  2  0
  6  8  1  0
  6  9  1  0
  9 10  2  0
M  END
$$$$
