
     RDKit          3D

 10 11  0  0  0  0  0  0  0  0999 V2000
  138.9705  151.3131  142.5679 C   0  0  0  0  0  0  0  0  0  0  0  0
  138.6042  152.0888  143.2654 C   0  0  0  0  0  0  0  0  0  0  0  0
  137.6600  151.8318  144.0475 C   0  0  0  0  0  0  0  0  0  0  0  0
  137.3579  150.3956  144.4727 C   0  0  0  0  0  0  0  0  0  0  0  0
  137.8415  149.6345  143.8631 C   0  0  0  0  0  0  0  0  0  0  0  0
  136.7910  152.7621  144.8235 C   0  0  0  0  0  0  0  0  0  0  0  0
  135.4616  152.5748  145.2584 C   0  0  0  0  0  0  0  0  0  0  0  0
  135.1207  151.3143  145.4351 C   0  0  0  0  0  0  0  0  0  0  0  0
  136.2437  150.2968  145.3284 C   0  0  0  0  0  0  0  0  0  0  0  0
  139.0442  149.9078  142.6973 C   0  0  0  0  0  0  0  0  0  0  0  0
  1  2  2  0
  2  3  1  0
  3  4  2  0
  4  5  1  0
  3  6  1  0
  6  7  1  0
  7  8  2  0
  4  9  1  0
  8  9  1  0
  1 10  1  0
  5 10  2  0
M  END
$$$$
