
     RDKit          3D

  9  9  0  0  0  0  0  0  0  0999 V2000
  138.9705  151.3131  142.5679 C   0  0  0  0  0  0  0  0  0  0  0  0
  138.6042  152.0888  143.2654 C   0  0  0  0  0  0  0  0  0  0  0  0
  137.6273  151.7082  144.0681 C   0  0  0  0  0  0  0  0  0  0  0  0
  137.2534  150.3600  144.1198 C   0  0  0  0  0  0  0  0  0  0  0  0
  136.9631  152.5471  145.1695 C   0  0  0  0  0  0  0  0  0  0  0  0
  138.5343  149.9283  142.4171 C   0  0  0  0  0  0  0  0  0  0  0  0
  137.1920  153.7819  145.1669 C   0  0  0  0  0  0  0  0  0  0  0  0
  137.7763  149.4171  143.3443 C   0  0  0  0  0  0  0  0  0  0  0  0
  135.7410  152.0885  145.4267 C   0  0  0  0  0  0  0  0  0  0  0  0
  1  2  1  0
  2  3  2  0
  3  4  1  0
  3  5  1  0
  1  6  2  0
  5  7  1  0
  4  8  2  0
  6  8  1  0
  5  9  1  0
M  END
$$$$
