
     RDKit          3D

 10 10  0  0  0  0  0  0  0  0999 V2000
  140.3038  150.2150  139.4785 Cl  0  0  0  0  0  0  0  0  0  0  0  0
  138.6786  150.1874  140.5317 C   0  0  0  0  0  0  0  0  0  0  0  0
  137.6385  149.3840  140.0946 C   0  0  0  0  0  0  0  0  0  0  0  0
  138.7732  150.9300  141.6509 C   0  0  0  0  0  0  0  0  0  0  0  0
  137.6842  150.8851  142.5415 C   0  0  0  0  0  0  0  0  0  0  0  0
  137.6718  148.8757  138.7125 C   0  0  0  0  0  0  0  0  0  0  0  0
  136.4474  149.3794  140.9008 C   0  0  0  0  0  0  0  0  0  0  0  0
  135.2821  148.8362  140.5287 C   0  0  0  0  0  0  0  0  0  0  0  0
  136.5252  150.1629  142.1832 C   0  0  0  0  0  0  0  0  0  0  0  0
  137.7226  151.5719  144.0689 Cl  0  0  0  0  0  0  0  0  0  0  0  0
  1  2  1  0
  2  3  1  0
  2  4  2  0
  4  5  1  0
  3  6  1  0
  3  7  2  0
  7  8  1  0
  5  9  2  0
  7  9  1  0
  5 10  1  0
M  END
$$$$
