
     RDKit          3D

 10 11  0  0  0  0  0  0  0  0999 V2000
  139.2621  151.0930  142.4042 C   0  0  0  0  0  0  0  0  0  0  0  0
  138.8616  152.1304  142.9039 C   0  0  0  0  0  0  0  0  0  0  0  0
  137.7832  151.8907  143.8937 C   0  0  0  0  0  0  0  0  0  0  0  0
  137.3598  150.5392  144.0619 C   0  0  0  0  0  0  0  0  0  0  0  0
  136.3242  150.4631  145.1222 C   0  0  0  0  0  0  0  0  0  0  0  0
  139.2678  149.7545  142.8033 C   0  0  0  0  0  0  0  0  0  0  0  0
  137.9837  149.5357  143.6343 C   0  0  0  0  0  0  0  0  0  0  0  0
  135.7426  151.6402  145.3948 C   0  0  0  0  0  0  0  0  0  0  0  0
  136.9309  152.8315  144.5603 C   0  0  0  0  0  0  0  0  0  0  0  0
  140.0754  151.4117  140.9993 C   0  0  0  0  0  0  0  0  0  0  0  0
  1  2  1  0
  2  3  2  0
  3  4  1  0
  4  5  2  0
  1  6  1  0
  4  7  1  0
  6  7  2  0
  5  8  1  0
  3  9  1  0
  8  9  2  0
  1 10  1  0
M  END
$$$$
