
     RDKit          3D

 10  9  0  0  0  0  0  0  0  0999 V2000
  140.3038  150.2150  139.4785 Cl  0  0  0  0  0  0  0  0  0  0  0  0
  138.6786  150.1874  140.5317 C   0  0  0  0  0  0  0  0  0  0  0  0
  137.6385  149.3840  140.0946 C   0  0  0  0  0  0  0  0  0  0  0  0
  137.5435  148.9630  138.7458 C   0  0  0  0  0  0  0  0  0  0  0  0
  138.7804  150.7277  141.8680 C   0  0  0  0  0  0  0  0  0  0  0  0
  137.8976  150.5360  142.8526 C   0  0  0  0  0  0  0  0  0  0  0  0
  137.8679  151.2432  143.8098 C   0  0  0  0  0  0  0  0  0  0  0  0
  136.6086  151.6916  144.4899 C   0  0  0  0  0  0  0  0  0  0  0  0
  135.5648  151.8001  143.9329 C   0  0  0  0  0  0  0  0  0  0  0  0
  136.5264  152.3549  145.7717 C   0  0  0  0  0  0  0  0  0  0  0  0
  1  2  1  0
  2  3  2  3
  3  4  1  0
  2  5  1  0
  5  6  2  3
  6  7  1  0
  7  8  1  0
  8  9  2  0
  8 10  1  0
M  END
$$$$
