
     RDKit          3D

 11 12  0  0  0  0  0  0  0  0999 V2000
  138.9705  151.3131  142.5679 C   0  0  0  0  0  0  0  0  0  0  0  0
  138.6042  152.0888  143.2654 C   0  0  0  0  0  0  0  0  0  0  0  0
  137.4887  151.7640  144.1910 C   0  0  0  0  0  0  0  0  0  0  0  0
  137.1673  150.4135  144.2710 C   0  0  0  0  0  0  0  0  0  0  0  0
  136.7837  152.6380  145.0886 C   0  0  0  0  0  0  0  0  0  0  0  0
  138.5889  149.8386  142.4057 C   0  0  0  0  0  0  0  0  0  0  0  0
  137.0939  153.8636  145.1629 C   0  0  0  0  0  0  0  0  0  0  0  0
  136.3490  149.8987  145.2768 C   0  0  0  0  0  0  0  0  0  0  0  0
  135.5839  152.2254  145.7081 C   0  0  0  0  0  0  0  0  0  0  0  0
  135.5977  150.8404  145.9241 C   0  0  0  0  0  0  0  0  0  0  0  0
  137.8569  149.5324  143.3492 C   0  0  0  0  0  0  0  0  0  0  0  0
  1  2  1  0
  2  3  2  0
  3  4  1  0
  3  5  1  0
  1  6  2  0
  5  7  1  0
  4  8  1  0
  5  9  2  0
  8 10  2  0
  9 10  1  0
  4 11  2  0
  6 11  1  0
M  END
$$$$
