
     RDKit          3D

 11 12  0  0  0  0  0  0  0  0999 V2000
  140.3038  150.2150  139.4785 Cl  0  0  0  0  0  0  0  0  0  0  0  0
  138.6786  150.1874  140.5317 C   0  0  0  0  0  0  0  0  0  0  0  0
  137.6385  149.3840  140.0946 C   0  0  0  0  0  0  0  0  0  0  0  0
  139.0347  150.8837  141.6176 C   0  0  0  0  0  0  0  0  0  0  0  0
  136.4870  149.4739  141.0114 C   0  0  0  0  0  0  0  0  0  0  0  0
  136.6060  150.3319  142.1494 C   0  0  0  0  0  0  0  0  0  0  0  0
  135.4599  150.4857  143.0766 C   0  0  0  0  0  0  0  0  0  0  0  0
  137.8590  150.9618  142.5075 C   0  0  0  0  0  0  0  0  0  0  0  0
  135.7658  150.7112  144.3958 C   0  0  0  0  0  0  0  0  0  0  0  0
  136.5222  151.7994  144.8427 C   0  0  0  0  0  0  0  0  0  0  0  0
  137.8026  151.9029  144.1058 C   0  0  0  0  0  0  0  0  0  0  0  0
  1  2  1  0
  2  3  2  0
  2  4  1  0
  3  5  1  0
  5  6  2  0
  6  7  1  0
  4  8  2  0
  6  8  1  0
  7  9  2  0
  9 10  1  0
  8 11  1  0
 10 11  2  0
M  END
$$$$
