
     RDKit          3D

 11 11  0  0  0  0  0  0  0  0999 V2000
  140.3038  150.2150  139.4785 Cl  0  0  0  0  0  0  0  0  0  0  0  0
  138.6786  150.1874  140.5317 C   0  0  0  0  0  0  0  0  0  0  0  0
  137.6385  149.3840  140.0946 C   0  0  0  0  0  0  0  0  0  0  0  0
  138.8663  150.7187  141.4505 C   0  0  0  0  0  0  0  0  0  0  0  0
  136.5679  149.5915  140.7717 C   0  0  0  0  0  0  0  0  0  0  0  0
  136.4392  150.3739  141.9168 C   0  0  0  0  0  0  0  0  0  0  0  0
  135.2724  150.5937  142.7496 C   0  0  0  0  0  0  0  0  0  0  0  0
  135.5954  151.2901  144.0210 C   0  0  0  0  0  0  0  0  0  0  0  0
  134.6557  151.6704  144.9628 C   0  0  0  0  0  0  0  0  0  0  0  0
  137.9401  151.0013  142.3269 C   0  0  0  0  0  0  0  0  0  0  0  0
  135.1818  152.2950  146.2418 C   0  0  0  0  0  0  0  0  0  0  0  0
  1  2  1  0
  2  3  2  0
  2  4  1  0
  3  5  1  0
  5  6  2  0
  6  7  1  0
  7  8  2  3
  8  9  1  0
  4 10  2  0
  6 10  1  0
  9 11  1  0
M  END
$$$$
