
     RDKit          3D

 11 12  0  0  0  0  0  0  0  0999 V2000
  139.5546  150.5070  140.4440 C   0  0  0  0  0  0  0  0  0  0  0  0
  139.2168  150.0150  139.3722 C   0  0  0  0  0  0  0  0  0  0  0  0
  138.8581  150.3073  141.5852 C   0  0  0  0  0  0  0  0  0  0  0  0
  137.9799  149.2986  139.2370 C   0  0  0  0  0  0  0  0  0  0  0  0
  137.5554  148.8167  137.9571 C   0  0  0  0  0  0  0  0  0  0  0  0
  137.1985  149.2486  140.4313 C   0  0  0  0  0  0  0  0  0  0  0  0
  139.3437  150.8849  142.9281 C   0  0  0  0  0  0  0  0  0  0  0  0
  138.3296  151.1409  143.9199 C   0  0  0  0  0  0  0  0  0  0  0  0
  137.0616  150.6228  143.5888 C   0  0  0  0  0  0  0  0  0  0  0  0
  137.5071  149.7764  141.5692 C   0  0  0  0  0  0  0  0  0  0  0  0
  136.6377  149.9962  142.5556 N   0  0  0  0  0  0  0  0  0  0  0  0
  1  2  2  0
  1  3  1  0
  2  4  1  0
  4  5  1  0
  4  6  2  0
  3  7  1  0
  7  8  2  0
  8  9  1  0
  3 10  2  0
  6 10  1  0
  9 11  2  0
 10 11  1  0
M  END
$$$$
