
     RDKit          3D

 11 12  0  0  0  0  0  0  0  0999 V2000
  138.9705  151.3131  142.5679 C   0  0  0  0  0  0  0  0  0  0  0  0
  138.6042  152.0888  143.2654 C   0  0  0  0  0  0  0  0  0  0  0  0
  137.6273  151.7082  144.0681 C   0  0  0  0  0  0  0  0  0  0  0  0
  137.2534  150.3600  144.1198 C   0  0  0  0  0  0  0  0  0  0  0  0
  136.8411  152.5522  145.0781 C   0  0  0  0  0  0  0  0  0  0  0  0
  138.5500  149.9189  142.4304 C   0  0  0  0  0  0  0  0  0  0  0  0
  135.6585  152.0704  145.5970 C   0  0  0  0  0  0  0  0  0  0  0  0
  136.3115  149.9939  145.1725 C   0  0  0  0  0  0  0  0  0  0  0  0
  135.5514  150.7341  145.9185 C   0  0  0  0  0  0  0  0  0  0  0  0
  137.7766  149.5207  143.2955 N   0  0  0  0  0  0  0  0  0  0  0  0
  134.7345  153.0649  146.1087 C   0  0  0  0  0  0  0  0  0  0  0  0
  1  2  1  0
  2  3  2  0
  3  4  1  0
  3  5  1  0
  1  6  2  0
  5  7  1  0
  4  8  1  0
  7  9  1  0
  8  9  2  0
  4 10  2  0
  6 10  1  0
  7 11  1  0
M  END
$$$$
