
     RDKit          3D

 11 12  0  0  0  0  0  0  0  0999 V2000
  139.3423  149.9928  140.5892 C   0  0  0  0  0  0  0  0  0  0  0  0
  138.9530  149.9232  139.3662 C   0  0  0  0  0  0  0  0  0  0  0  0
  138.6126  150.1100  141.6424 C   0  0  0  0  0  0  0  0  0  0  0  0
  137.1875  149.8648  141.8313 C   0  0  0  0  0  0  0  0  0  0  0  0
  136.5143  149.7627  140.5785 C   0  0  0  0  0  0  0  0  0  0  0  0
  139.1985  150.3843  143.0722 C   0  0  0  0  0  0  0  0  0  0  0  0
  138.2608  150.9551  144.0720 C   0  0  0  0  0  0  0  0  0  0  0  0
  137.3799  149.6942  139.2508 C   0  0  0  0  0  0  0  0  0  0  0  0
  137.1024  151.3452  143.9380 C   0  0  0  0  0  0  0  0  0  0  0  0
  136.3108  150.7212  142.8514 C   0  0  0  0  0  0  0  0  0  0  0  0
  136.3497  151.5602  145.0403 O   0  0  0  0  0  0  0  0  0  0  0  0
  1  2  2  0
  1  3  1  0
  3  4  1  0
  4  5  2  0
  3  6  1  0
  6  7  2  0
  2  8  1  0
  5  8  1  0
  7  9  1  0
  4 10  1  0
  9 10  1  0
  9 11  1  0
M  END
$$$$
