
     RDKit          3D

  9  9  0  0  0  0  0  0  0  0999 V2000
  140.3019  150.2145  139.4802 Cl  0  0  0  0  0  0  0  0  0  0  0  0
  138.6758  150.1820  140.5311 C   0  0  0  0  0  0  0  0  0  0  0  0
  137.6364  149.3800  140.0902 C   0  0  0  0  0  0  0  0  0  0  0  0
  139.0293  150.8783  141.6179 C   0  0  0  0  0  0  0  0  0  0  0  0
  138.0425  150.8315  142.6892 C   0  0  0  0  0  0  0  0  0  0  0  0
  136.6397  149.5824  141.0112 C   0  0  0  0  0  0  0  0  0  0  0  0
  135.2749  149.1969  140.6580 C   0  0  0  0  0  0  0  0  0  0  0  0
  136.8781  150.2815  142.2943 C   0  0  0  0  0  0  0  0  0  0  0  0
  138.1789  151.6233  144.0671 Cl  0  0  0  0  0  0  0  0  0  0  0  0
  1  2  1  0
  2  3  2  0
  2  4  1  0
  4  5  2  0
  3  6  1  0
  6  7  1  0
  5  8  1  0
  6  8  2  0
  5  9  1  0
M  END
$$$$
