
     RDKit          3D

  9  9  0  0  0  0  0  0  0  0999 V2000
  139.2620  151.0921  142.4039 C   0  0  0  0  0  0  0  0  0  0  0  0
  138.8618  152.1315  142.9023 C   0  0  0  0  0  0  0  0  0  0  0  0
  137.7838  151.8936  143.8932 C   0  0  0  0  0  0  0  0  0  0  0  0
  140.0663  150.9640  141.1516 C   0  0  0  0  0  0  0  0  0  0  0  0
  137.3581  150.5082  143.9688 C   0  0  0  0  0  0  0  0  0  0  0  0
  136.3949  150.2409  144.9741 C   0  0  0  0  0  0  0  0  0  0  0  0
  139.5706  150.2304  140.0574 C   0  0  0  0  0  0  0  0  0  0  0  0
  138.0104  149.8873  143.0483 C   0  0  0  0  0  0  0  0  0  0  0  0
  140.3755  150.1016  138.9032 C   0  0  0  0  0  0  0  0  0  0  0  0
  1  2  1  0
  2  3  2  0
  1  4  1  0
  3  5  1  0
  5  6  1  0
  4  7  2  3
  1  8  2  0
  5  8  2  0
  7  9  1  0
M  END
$$$$
