
     RDKit          3D

 12 13  0  0  0  0  0  0  0  0999 V2000
  138.9697  151.3146  142.5684 C   0  0  0  0  0  0  0  0  0  0  0  0
  138.6018  152.0883  143.2657 C   0  0  0  0  0  0  0  0  0  0  0  0
  137.4864  151.7371  144.1980 C   0  0  0  0  0  0  0  0  0  0  0  0
  137.1833  150.3878  144.2579 C   0  0  0  0  0  0  0  0  0  0  0  0
  138.6180  149.8372  142.4937 C   0  0  0  0  0  0  0  0  0  0  0  0
  136.6465  152.5356  145.1285 C   0  0  0  0  0  0  0  0  0  0  0  0
  136.8882  153.8031  145.2303 C   0  0  0  0  0  0  0  0  0  0  0  0
  135.5068  151.9682  145.7601 C   0  0  0  0  0  0  0  0  0  0  0  0
  136.3357  149.9134  145.2997 C   0  0  0  0  0  0  0  0  0  0  0  0
  135.3607  150.5832  145.9662 C   0  0  0  0  0  0  0  0  0  0  0  0
  137.8672  149.4565  143.3994 C   0  0  0  0  0  0  0  0  0  0  0  0
  134.4972  152.7792  146.2669 C   0  0  0  0  0  0  0  0  0  0  0  0
  1  2  1  0
  2  3  2  0
  3  4  1  0
  1  5  2  0
  3  6  1  0
  6  7  2  0
  6  8  1  0
  4  9  1  0
  8 10  1  0
  9 10  1  0
  4 11  2  0
  5 11  1  0
  8 12  2  0
M  END
$$$$
