
     RDKit          3D

 12 12  0  0  0  0  0  0  0  0999 V2000
  138.7240  151.5758  143.3184 C   0  0  0  0  0  0  0  0  0  0  0  0
  137.9193  152.3258  143.7536 C   0  0  0  0  0  0  0  0  0  0  0  0
  136.7526  151.8075  144.4391 C   0  0  0  0  0  0  0  0  0  0  0  0
  138.5730  150.7616  142.3607 C   0  0  0  0  0  0  0  0  0  0  0  0
  136.5022  150.5129  144.1734 C   0  0  0  0  0  0  0  0  0  0  0  0
  139.5484  150.5136  141.3201 C   0  0  0  0  0  0  0  0  0  0  0  0
  137.3290  149.9593  142.5491 C   0  0  0  0  0  0  0  0  0  0  0  0
  135.7601  152.4565  145.4755 C   0  0  0  0  0  0  0  0  0  0  0  0
  134.8420  151.7924  146.0388 C   0  0  0  0  0  0  0  0  0  0  0  0
  139.2495  149.9272  140.1262 C   0  0  0  0  0  0  0  0  0  0  0  0
  140.1419  150.0293  138.9966 C   0  0  0  0  0  0  0  0  0  0  0  0
  136.1541  153.5953  145.5190 O   0  0  0  0  0  0  0  0  0  0  0  0
  1  2  1  0
  2  3  2  0
  1  4  2  0
  3  5  1  0
  4  6  1  0
  4  7  1  0
  5  7  2  0
  3  8  1  0
  8  9  1  0
  6 10  1  0
 10 11  1  0
  8 12  2  0
M  END
$$$$
