
     RDKit          3D

 12 13  0  0  0  0  0  0  0  0999 V2000
  140.3019  150.2145  139.4802 Cl  0  0  0  0  0  0  0  0  0  0  0  0
  138.6758  150.1820  140.5311 C   0  0  0  0  0  0  0  0  0  0  0  0
  137.6364  149.3800  140.0902 C   0  0  0  0  0  0  0  0  0  0  0  0
  139.2345  150.7148  141.5757 C   0  0  0  0  0  0  0  0  0  0  0  0
  138.3506  151.0464  142.3754 C   0  0  0  0  0  0  0  0  0  0  0  0
  136.6679  149.8087  140.9324 C   0  0  0  0  0  0  0  0  0  0  0  0
  138.6250  151.7679  143.7112 C   0  0  0  0  0  0  0  0  0  0  0  0
  135.2414  149.4762  140.7472 C   0  0  0  0  0  0  0  0  0  0  0  0
  137.5911  151.8691  144.5285 C   0  0  0  0  0  0  0  0  0  0  0  0
  136.4610  151.4441  144.2520 C   0  0  0  0  0  0  0  0  0  0  0  0
  136.9019  150.6075  142.1910 C   0  0  0  0  0  0  0  0  0  0  0  0
  135.9566  150.8477  143.1046 C   0  0  0  0  0  0  0  0  0  0  0  0
  1  2  1  0
  2  3  1  0
  2  4  2  0
  4  5  1  0
  3  6  2  0
  5  7  1  0
  6  8  1  0
  7  9  2  0
  9 10  1  0
  5 11  2  0
  6 11  1  0
 10 12  2  0
 11 12  1  0
M  END
$$$$
