
     RDKit          3D

 12 13  0  0  0  0  0  0  0  0999 V2000
  139.5550  150.5075  140.4438 C   0  0  0  0  0  0  0  0  0  0  0  0
  139.2165  150.0149  139.3725 C   0  0  0  0  0  0  0  0  0  0  0  0
  138.8581  150.3072  141.5852 C   0  0  0  0  0  0  0  0  0  0  0  0
  139.2270  150.3459  142.8891 C   0  0  0  0  0  0  0  0  0  0  0  0
  138.5608  151.2821  143.6742 C   0  0  0  0  0  0  0  0  0  0  0  0
  137.8570  149.4552  139.3184 C   0  0  0  0  0  0  0  0  0  0  0  0
  137.4753  151.5817  143.4203 C   0  0  0  0  0  0  0  0  0  0  0  0
  137.4378  150.1450  141.2520 C   0  0  0  0  0  0  0  0  0  0  0  0
  136.4113  151.9557  144.2718 C   0  0  0  0  0  0  0  0  0  0  0  0
  136.9459  149.6318  140.2423 C   0  0  0  0  0  0  0  0  0  0  0  0
  136.6293  150.8339  142.4306 C   0  0  0  0  0  0  0  0  0  0  0  0
  136.6617  153.2388  145.1081 C   0  0  0  0  0  0  0  0  0  0  0  0
  1  2  2  0
  1  3  1  0
  3  4  1  0
  4  5  2  0
  2  6  1  0
  5  7  1  0
  3  8  2  0
  7  9  2  3
  6 10  2  0
  8 10  1  0
  7 11  1  0
  8 11  1  0
  9 12  1  0
M  END
$$$$
