
     RDKit          3D

 12 13  0  0  0  0  0  0  0  0999 V2000
  138.7086  151.1469  142.6266 C   0  0  0  0  0  0  0  0  0  0  0  0
  138.5250  151.9368  143.5112 C   0  0  0  0  0  0  0  0  0  0  0  0
  137.3905  151.8077  144.0741 C   0  0  0  0  0  0  0  0  0  0  0  0
  136.5952  150.6189  143.9723 C   0  0  0  0  0  0  0  0  0  0  0  0
  137.9808  149.9629  142.2545 C   0  0  0  0  0  0  0  0  0  0  0  0
  136.5092  152.7499  145.0886 C   0  0  0  0  0  0  0  0  0  0  0  0
  135.4520  152.3059  145.6998 C   0  0  0  0  0  0  0  0  0  0  0  0
  135.4638  150.4686  144.8121 C   0  0  0  0  0  0  0  0  0  0  0  0
  134.8689  151.1429  145.6336 C   0  0  0  0  0  0  0  0  0  0  0  0
  136.9606  149.7477  143.0402 C   0  0  0  0  0  0  0  0  0  0  0  0
  140.0360  151.3669  141.7486 C   0  0  0  0  0  0  0  0  0  0  0  0
  139.9379  151.0430  140.3370 C   0  0  0  0  0  0  0  0  0  0  0  0
  1  2  1  0
  2  3  2  0
  3  4  1  0
  1  5  2  0
  3  6  1  0
  6  7  1  0
  4  8  1  0
  7  9  2  0
  8  9  2  0
  4 10  2  0
  5 10  1  0
  1 11  1  0
 11 12  2  0
M  END
$$$$
