
     RDKit          3D

 12 13  0  0  0  0  0  0  0  0999 V2000
  139.2620  151.0921  142.4039 C   0  0  0  0  0  0  0  0  0  0  0  0
  138.8618  152.1315  142.9023 C   0  0  0  0  0  0  0  0  0  0  0  0
  137.7838  151.8936  143.8932 C   0  0  0  0  0  0  0  0  0  0  0  0
  137.3596  150.5423  144.0627 C   0  0  0  0  0  0  0  0  0  0  0  0
  136.3232  150.4823  145.1226 C   0  0  0  0  0  0  0  0  0  0  0  0
  139.2662  149.7547  142.8065 C   0  0  0  0  0  0  0  0  0  0  0  0
  138.1300  149.4969  143.5633 C   0  0  0  0  0  0  0  0  0  0  0  0
  140.3208  151.2825  141.2610 C   0  0  0  0  0  0  0  0  0  0  0  0
  139.9126  150.4639  140.0100 C   0  0  0  0  0  0  0  0  0  0  0  0
  135.7591  151.6218  145.4001 C   0  0  0  0  0  0  0  0  0  0  0  0
  137.1524  152.8988  144.6330 C   0  0  0  0  0  0  0  0  0  0  0  0
  136.1549  152.8139  145.3421 C   0  0  0  0  0  0  0  0  0  0  0  0
  1  2  1  0
  2  3  2  0
  3  4  1  0
  4  5  2  0
  1  6  1  0
  4  7  1  0
  6  7  2  0
  1  8  1  0
  8  9  1  0
  5 10  1  0
  3 11  1  0
 10 12  2  0
 11 12  2  0
M  END
$$$$
