
     RDKit          3D

 12 12  0  0  0  0  0  0  0  0999 V2000
  140.3019  150.2145  139.4802 Cl  0  0  0  0  0  0  0  0  0  0  0  0
  138.6758  150.1820  140.5311 C   0  0  0  0  0  0  0  0  0  0  0  0
  137.6364  149.3800  140.0902 C   0  0  0  0  0  0  0  0  0  0  0  0
  138.8645  150.7144  141.4528 C   0  0  0  0  0  0  0  0  0  0  0  0
  136.5623  149.5846  140.7692 C   0  0  0  0  0  0  0  0  0  0  0  0
  135.2780  149.0429  140.1877 C   0  0  0  0  0  0  0  0  0  0  0  0
  136.5970  150.4486  141.8282 C   0  0  0  0  0  0  0  0  0  0  0  0
  137.7094  150.9664  142.3471 C   0  0  0  0  0  0  0  0  0  0  0  0
  137.7413  151.7697  143.5768 C   0  0  0  0  0  0  0  0  0  0  0  0
  136.6851  151.6752  144.4641 C   0  0  0  0  0  0  0  0  0  0  0  0
  136.2610  150.6365  144.9393 C   0  0  0  0  0  0  0  0  0  0  0  0
  136.5258  152.8990  145.3278 C   0  0  0  0  0  0  0  0  0  0  0  0
  1  2  1  0
  2  3  2  0
  2  4  1  0
  3  5  1  0
  5  6  1  0
  5  7  2  0
  4  8  2  0
  7  8  1  0
  8  9  1  0
  9 10  1  0
 10 11  2  0
 10 12  1  0
M  END
$$$$
