
     RDKit          3D

  9  9  0  0  0  0  0  0  0  0999 V2000
  139.0010  149.7643  140.3643 C   0  0  0  0  0  0  0  0  0  0  0  0
  139.7634  150.8548  140.7362 C   0  0  0  0  0  0  0  0  0  0  0  0
  139.2622  149.1441  139.1764 C   0  0  0  0  0  0  0  0  0  0  0  0
  139.5453  151.5170  142.0076 C   0  0  0  0  0  0  0  0  0  0  0  0
  138.5845  150.8186  142.8528 C   0  0  0  0  0  0  0  0  0  0  0  0
  137.9507  149.4751  141.2608 C   0  0  0  0  0  0  0  0  0  0  0  0
  136.9955  148.5390  140.6550 C   0  0  0  0  0  0  0  0  0  0  0  0
  138.5020  151.4293  144.2946 C   0  0  0  0  0  0  0  0  0  0  0  0
  137.7120  149.9337  142.4778 C   0  0  0  0  0  0  0  0  0  0  0  0
  1  2  2  0
  1  3  1  0
  2  4  1  0
  4  5  2  0
  1  6  1  0
  6  7  1  0
  5  8  1  0
  5  9  1  0
  6  9  2  0
M  END
$$$$
