
     RDKit          3D

 12 13  0  0  0  0  0  0  0  0999 V2000
  139.2620  151.0921  142.4039 C   0  0  0  0  0  0  0  0  0  0  0  0
  138.8618  152.1315  142.9023 C   0  0  0  0  0  0  0  0  0  0  0  0
  137.7838  151.8936  143.8932 C   0  0  0  0  0  0  0  0  0  0  0  0
  137.3596  150.5423  144.0627 C   0  0  0  0  0  0  0  0  0  0  0  0
  136.3232  150.4823  145.1226 C   0  0  0  0  0  0  0  0  0  0  0  0
  139.2662  149.7547  142.8065 C   0  0  0  0  0  0  0  0  0  0  0  0
  138.1300  149.4969  143.5633 C   0  0  0  0  0  0  0  0  0  0  0  0
  135.7805  151.6674  145.3651 C   0  0  0  0  0  0  0  0  0  0  0  0
  134.8683  151.9355  146.3406 C   0  0  0  0  0  0  0  0  0  0  0  0
  135.9367  152.7330  144.6697 C   0  0  0  0  0  0  0  0  0  0  0  0
  137.0504  153.0567  144.2789 C   0  0  0  0  0  0  0  0  0  0  0  0
  140.0228  151.3724  140.9838 C   0  0  0  0  0  0  0  0  0  0  0  0
  1  2  1  0
  2  3  2  0
  3  4  1  0
  4  5  2  0
  1  6  1  0
  4  7  1  0
  6  7  2  0
  5  8  1  0
  8  9  1  0
  8 10  2  0
  3 11  1  0
 10 11  1  0
  1 12  1  0
M  END
$$$$
