
     RDKit          3D

 12 13  0  0  0  0  0  0  0  0999 V2000
  138.9697  151.3146  142.5684 C   0  0  0  0  0  0  0  0  0  0  0  0
  138.6018  152.0883  143.2657 C   0  0  0  0  0  0  0  0  0  0  0  0
  137.6374  151.6902  144.0814 C   0  0  0  0  0  0  0  0  0  0  0  0
  140.0289  151.3257  141.4197 C   0  0  0  0  0  0  0  0  0  0  0  0
  138.3155  150.1048  142.4750 C   0  0  0  0  0  0  0  0  0  0  0  0
  137.1598  150.7310  144.0930 C   0  0  0  0  0  0  0  0  0  0  0  0
  137.3088  152.9948  145.0534 C   0  0  0  0  0  0  0  0  0  0  0  0
  136.1413  150.2530  145.1891 C   0  0  0  0  0  0  0  0  0  0  0  0
  137.3913  149.6173  143.3362 C   0  0  0  0  0  0  0  0  0  0  0  0
  139.9000  150.6136  140.2262 C   0  0  0  0  0  0  0  0  0  0  0  0
  139.0163  149.6537  139.9878 C   0  0  0  0  0  0  0  0  0  0  0  0
  138.4099  149.1847  141.2292 C   0  0  0  0  0  0  0  0  0  0  0  0
  1  2  1  0
  2  3  2  0
  1  4  1  0
  1  5  2  0
  3  6  1  0
  3  7  1  0
  6  8  1  0
  5  9  1  0
  6  9  2  0
  4 10  2  0
 10 11  1  0
  5 12  1  0
 11 12  1  0
M  END
$$$$
