
     RDKit          3D

 12 13  0  0  0  0  0  0  0  0999 V2000
  138.7086  151.1469  142.6266 C   0  0  0  0  0  0  0  0  0  0  0  0
  138.5250  151.9368  143.5112 C   0  0  0  0  0  0  0  0  0  0  0  0
  137.3811  151.6572  144.3961 C   0  0  0  0  0  0  0  0  0  0  0  0
  139.7008  151.1089  141.6121 C   0  0  0  0  0  0  0  0  0  0  0  0
  136.7115  150.4275  144.0247 C   0  0  0  0  0  0  0  0  0  0  0  0
  137.9015  150.0212  142.3179 C   0  0  0  0  0  0  0  0  0  0  0  0
  136.8859  149.6190  143.0675 C   0  0  0  0  0  0  0  0  0  0  0  0
  139.8593  150.6535  140.3136 C   0  0  0  0  0  0  0  0  0  0  0  0
  138.9812  149.6479  139.9300 C   0  0  0  0  0  0  0  0  0  0  0  0
  138.0194  149.2769  140.9568 C   0  0  0  0  0  0  0  0  0  0  0  0
  137.1389  152.5424  145.4907 O   0  0  0  0  0  0  0  0  0  0  0  0
  136.6527  153.7624  145.1356 C   0  0  0  0  0  0  0  0  0  0  0  0
  1  2  1  0
  2  3  2  0
  1  4  1  0
  3  5  1  0
  1  6  2  0
  5  7  2  0
  6  7  1  0
  4  8  2  0
  8  9  1  0
  6 10  1  0
  9 10  2  0
  3 11  1  0
 11 12  1  0
M  END
$$$$
