
     RDKit          3D

 13 14  0  0  0  0  0  0  0  0999 V2000
  138.7240  151.5758  143.3184 C   0  0  0  0  0  0  0  0  0  0  0  0
  137.9193  152.3258  143.7536 C   0  0  0  0  0  0  0  0  0  0  0  0
  136.7526  151.8075  144.4391 C   0  0  0  0  0  0  0  0  0  0  0  0
  136.7825  150.4607  144.6808 C   0  0  0  0  0  0  0  0  0  0  0  0
  135.8633  152.6144  145.2382 C   0  0  0  0  0  0  0  0  0  0  0  0
  138.4720  150.1666  143.2072 C   0  0  0  0  0  0  0  0  0  0  0  0
  135.9938  153.8877  145.3789 C   0  0  0  0  0  0  0  0  0  0  0  0
  134.7465  151.9838  145.8269 C   0  0  0  0  0  0  0  0  0  0  0  0
  139.3227  149.2363  142.5316 C   0  0  0  0  0  0  0  0  0  0  0  0
  135.8241  150.0462  145.6494 C   0  0  0  0  0  0  0  0  0  0  0  0
  133.7602  152.8775  146.2967 C   0  0  0  0  0  0  0  0  0  0  0  0
  134.8658  150.6635  146.0766 C   0  0  0  0  0  0  0  0  0  0  0  0
  137.4910  149.5775  144.0441 N   0  0  0  0  0  0  0  0  0  0  0  0
  1  2  1  0
  2  3  2  0
  3  4  1  0
  3  5  1  0
  1  6  2  0
  5  7  1  0
  5  8  2  0
  6  9  1  0
  4 10  1  0
  8 11  1  0
  8 12  1  0
 10 12  2  0
  4 13  2  0
  6 13  1  0
M  END
$$$$
