
     RDKit          3D

  9  9  0  0  0  0  0  0  0  0999 V2000
  138.7240  151.5758  143.3184 C   0  0  0  0  0  0  0  0  0  0  0  0
  137.9193  152.3258  143.7536 C   0  0  0  0  0  0  0  0  0  0  0  0
  136.7526  151.8075  144.4391 C   0  0  0  0  0  0  0  0  0  0  0  0
  136.7825  150.4607  144.6808 C   0  0  0  0  0  0  0  0  0  0  0  0
  135.7199  152.5055  144.9802 C   0  0  0  0  0  0  0  0  0  0  0  0
  138.4936  150.1678  143.2328 C   0  0  0  0  0  0  0  0  0  0  0  0
  139.3554  149.2644  142.5214 C   0  0  0  0  0  0  0  0  0  0  0  0
  137.5368  149.5237  144.0285 C   0  0  0  0  0  0  0  0  0  0  0  0
  134.6617  152.0690  145.8063 C   0  0  0  0  0  0  0  0  0  0  0  0
  1  2  1  0
  2  3  2  0
  3  4  1  0
  3  5  1  0
  1  6  2  0
  6  7  1  0
  4  8  2  0
  6  8  1  0
  5  9  1  0
M  END
$$$$
