
     RDKit          3D

 13 14  0  0  0  0  0  0  0  0999 V2000
  140.3019  150.2145  139.4802 Cl  0  0  0  0  0  0  0  0  0  0  0  0
  138.6758  150.1820  140.5311 C   0  0  0  0  0  0  0  0  0  0  0  0
  137.6364  149.3800  140.0902 C   0  0  0  0  0  0  0  0  0  0  0  0
  139.0293  150.8783  141.6179 C   0  0  0  0  0  0  0  0  0  0  0  0
  136.4821  149.4702  141.0029 C   0  0  0  0  0  0  0  0  0  0  0  0
  136.5997  150.3282  142.1426 C   0  0  0  0  0  0  0  0  0  0  0  0
  135.4514  150.4834  143.0679 C   0  0  0  0  0  0  0  0  0  0  0  0
  138.1044  150.9690  142.4596 C   0  0  0  0  0  0  0  0  0  0  0  0
  135.7354  150.7638  144.3440 C   0  0  0  0  0  0  0  0  0  0  0  0
  136.9566  150.9211  144.8835 C   0  0  0  0  0  0  0  0  0  0  0  0
  134.7739  151.1514  145.2973 C   0  0  0  0  0  0  0  0  0  0  0  0
  138.1405  151.3045  143.9673 C   0  0  0  0  0  0  0  0  0  0  0  0
  134.8134  150.7743  146.5450 C   0  0  0  0  0  0  0  0  0  0  0  0
  1  2  1  0
  2  3  2  0
  2  4  1  0
  3  5  1  0
  5  6  2  0
  6  7  1  0
  4  8  2  0
  6  8  1  0
  7  9  1  0
  9 10  1  0
  9 11  2  3
  8 12  1  0
 10 12  1  0
 11 13  1  0
M  END
$$$$
