
     RDKit          3D

 13 14  0  0  0  0  0  0  0  0999 V2000
  138.9697  151.3146  142.5684 C   0  0  0  0  0  0  0  0  0  0  0  0
  138.6018  152.0883  143.2657 C   0  0  0  0  0  0  0  0  0  0  0  0
  137.4864  151.7371  144.1980 C   0  0  0  0  0  0  0  0  0  0  0  0
  139.9864  151.4011  141.4219 C   0  0  0  0  0  0  0  0  0  0  0  0
  136.7358  152.5376  145.0264 C   0  0  0  0  0  0  0  0  0  0  0  0
  139.7034  150.7343  140.1991 C   0  0  0  0  0  0  0  0  0  0  0  0
  137.0180  153.8817  145.0034 C   0  0  0  0  0  0  0  0  0  0  0  0
  135.6277  152.1340  145.3254 C   0  0  0  0  0  0  0  0  0  0  0  0
  138.5726  149.8410  140.3380 C   0  0  0  0  0  0  0  0  0  0  0  0
  137.7387  149.7688  141.5086 C   0  0  0  0  0  0  0  0  0  0  0  0
  138.1718  150.5608  142.5314 C   0  0  0  0  0  0  0  0  0  0  0  0
  137.2737  150.3832  143.9176 N   0  0  0  0  0  0  0  0  0  0  0  0
  134.7286  152.7330  145.9959 C   0  0  0  0  0  0  0  0  0  0  0  0
  1  2  1  0
  2  3  2  0
  1  4  1  0
  3  5  1  0
  4  6  2  0
  5  7  1  0
  5  8  2  3
  6  9  1  0
  9 10  2  0
  1 11  2  0
 10 11  1  0
  3 12  1  0
 11 12  1  0
  8 13  1  0
M  END
$$$$
