
     RDKit          3D

  9  9  0  0  0  0  0  0  0  0999 V2000
  139.0010  149.7643  140.3643 C   0  0  0  0  0  0  0  0  0  0  0  0
  139.7634  150.8548  140.7362 C   0  0  0  0  0  0  0  0  0  0  0  0
  139.2622  149.1441  139.1764 C   0  0  0  0  0  0  0  0  0  0  0  0
  139.5453  151.5170  142.0076 C   0  0  0  0  0  0  0  0  0  0  0  0
  138.4626  150.9900  142.6963 C   0  0  0  0  0  0  0  0  0  0  0  0
  137.8986  149.5526  141.2289 C   0  0  0  0  0  0  0  0  0  0  0  0
  136.9715  148.5516  140.6009 O   0  0  0  0  0  0  0  0  0  0  0  0
  137.6715  150.0994  142.3597 C   0  0  0  0  0  0  0  0  0  0  0  0
  138.2361  151.7835  144.3919 Cl  0  0  0  0  0  0  0  0  0  0  0  0
  1  2  2  0
  1  3  1  0
  2  4  1  0
  4  5  2  0
  1  6  1  0
  6  7  1  0
  5  8  1  0
  6  8  2  0
  5  9  1  0
M  END
$$$$
