
     RDKit          3D

 13 14  0  0  0  0  0  0  0  0999 V2000
  138.7086  151.1469  142.6266 C   0  0  0  0  0  0  0  0  0  0  0  0
  138.5250  151.9368  143.5112 C   0  0  0  0  0  0  0  0  0  0  0  0
  137.3811  151.6572  144.3961 C   0  0  0  0  0  0  0  0  0  0  0  0
  139.7008  151.1089  141.6121 C   0  0  0  0  0  0  0  0  0  0  0  0
  136.7115  150.4275  144.0247 C   0  0  0  0  0  0  0  0  0  0  0  0
  139.4933  150.4714  140.3262 C   0  0  0  0  0  0  0  0  0  0  0  0
  138.3034  149.7102  140.4068 C   0  0  0  0  0  0  0  0  0  0  0  0
  137.7753  150.0657  142.1256 C   0  0  0  0  0  0  0  0  0  0  0  0
  140.6852  150.7038  139.5336 C   0  0  0  0  0  0  0  0  0  0  0  0
  136.7272  152.3380  145.4868 C   0  0  0  0  0  0  0  0  0  0  0  0
  135.4500  152.4613  145.5105 C   0  0  0  0  0  0  0  0  0  0  0  0
  137.4462  149.5060  141.2351 C   0  0  0  0  0  0  0  0  0  0  0  0
  136.7999  149.8500  143.2052 N   0  0  0  0  0  0  0  0  0  0  0  0
  1  2  1  0
  2  3  2  0
  1  4  1  0
  3  5  1  0
  4  6  2  0
  6  7  1  0
  1  8  2  0
  6  9  1  0
  3 10  1  0
 10 11  1  0
  7 12  2  0
  8 12  1  0
  5 13  1  0
  8 13  1  0
M  END
$$$$
