
     RDKit          3D

 13 14  0  0  0  0  0  0  0  0999 V2000
  138.7086  151.1469  142.6266 C   0  0  0  0  0  0  0  0  0  0  0  0
  138.5250  151.9368  143.5112 C   0  0  0  0  0  0  0  0  0  0  0  0
  137.3811  151.6572  144.3961 C   0  0  0  0  0  0  0  0  0  0  0  0
  139.7008  151.1089  141.6121 C   0  0  0  0  0  0  0  0  0  0  0  0
  136.7115  150.4275  144.0247 C   0  0  0  0  0  0  0  0  0  0  0  0
  139.4933  150.4714  140.3262 C   0  0  0  0  0  0  0  0  0  0  0  0
  138.3034  149.7102  140.4068 C   0  0  0  0  0  0  0  0  0  0  0  0
  137.7401  150.0401  142.1735 C   0  0  0  0  0  0  0  0  0  0  0  0
  137.0235  152.5597  145.4530 C   0  0  0  0  0  0  0  0  0  0  0  0
  137.4360  149.4913  141.2908 C   0  0  0  0  0  0  0  0  0  0  0  0
  135.6356  152.5306  145.8257 C   0  0  0  0  0  0  0  0  0  0  0  0
  136.9654  149.8417  143.2049 N   0  0  0  0  0  0  0  0  0  0  0  0
  140.5099  150.6481  139.2453 C   0  0  0  0  0  0  0  0  0  0  0  0
  1  2  1  0
  2  3  2  0
  1  4  1  0
  3  5  1  0
  4  6  2  0
  6  7  1  0
  1  8  2  0
  3  9  1  0
  7 10  2  0
  8 10  1  0
  9 11  1  0
  5 12  2  0
  8 12  1  0
  6 13  1  0
M  END
$$$$
