
     RDKit          3D

 13 14  0  0  0  0  0  0  0  0999 V2000
  138.9697  151.3146  142.5684 C   0  0  0  0  0  0  0  0  0  0  0  0
  138.6018  152.0883  143.2657 C   0  0  0  0  0  0  0  0  0  0  0  0
  137.6687  151.8115  144.0583 C   0  0  0  0  0  0  0  0  0  0  0  0
  139.9926  151.3705  141.4268 C   0  0  0  0  0  0  0  0  0  0  0  0
  137.5512  150.6294  144.9277 C   0  0  0  0  0  0  0  0  0  0  0  0
  139.6588  150.7358  140.2572 C   0  0  0  0  0  0  0  0  0  0  0  0
  138.5025  150.0408  140.2323 C   0  0  0  0  0  0  0  0  0  0  0  0
  137.6103  149.8214  141.4294 C   0  0  0  0  0  0  0  0  0  0  0  0
  140.5682  150.6752  139.1701 C   0  0  0  0  0  0  0  0  0  0  0  0
  138.0190  150.3841  142.5786 C   0  0  0  0  0  0  0  0  0  0  0  0
  137.4008  149.8193  143.7426 O   0  0  0  0  0  0  0  0  0  0  0  0
  138.0235  149.5724  138.9903 C   0  0  0  0  0  0  0  0  0  0  0  0
  136.9671  148.9930  138.7254 C   0  0  0  0  0  0  0  0  0  0  0  0
  1  2  2  0
  2  3  1  0
  1  4  1  0
  3  5  2  0
  4  6  2  0
  6  7  1  0
  7  8  1  0
  6  9  1  0
  1 10  1  0
  8 10  2  0
  5 11  1  0
 10 11  1  0
  7 12  2  3
 12 13  1  0
M  END
$$$$
