
     RDKit          3D

 13 14  0  0  0  0  0  0  0  0999 V2000
  139.0010  149.7643  140.3643 C   0  0  0  0  0  0  0  0  0  0  0  0
  138.7144  149.5449  139.1247 C   0  0  0  0  0  0  0  0  0  0  0  0
  138.1840  150.1020  141.2852 C   0  0  0  0  0  0  0  0  0  0  0  0
  137.3200  149.5871  138.6815 C   0  0  0  0  0  0  0  0  0  0  0  0
  136.4668  149.5647  139.6600 C   0  0  0  0  0  0  0  0  0  0  0  0
  138.6203  150.4924  142.6513 C   0  0  0  0  0  0  0  0  0  0  0  0
  137.7616  150.9851  143.6296 C   0  0  0  0  0  0  0  0  0  0  0  0
  136.4770  150.9768  143.2092 C   0  0  0  0  0  0  0  0  0  0  0  0
  136.7704  150.0241  141.0188 C   0  0  0  0  0  0  0  0  0  0  0  0
  135.4317  151.4460  144.1527 C   0  0  0  0  0  0  0  0  0  0  0  0
  136.1335  150.4081  142.0126 C   0  0  0  0  0  0  0  0  0  0  0  0
  135.1492  151.0167  145.1858 C   0  0  0  0  0  0  0  0  0  0  0  0
  135.4094  151.8035  146.2732 C   0  0  0  0  0  0  0  0  0  0  0  0
  1  2  2  0
  1  3  1  0
  2  4  1  0
  4  5  2  0
  3  6  1  0
  6  7  2  0
  7  8  1  0
  3  9  2  0
  5  9  1  0
  8 10  1  0
  8 11  2  0
  9 11  1  0
 10 12  1  0
 12 13  1  0
M  END
$$$$
