
     RDKit          3D

 13 14  0  0  0  0  0  0  0  0999 V2000
  139.2620  151.0921  142.4039 C   0  0  0  0  0  0  0  0  0  0  0  0
  138.8618  152.1315  142.9023 C   0  0  0  0  0  0  0  0  0  0  0  0
  137.9130  151.7995  143.7812 C   0  0  0  0  0  0  0  0  0  0  0  0
  138.8259  150.3979  141.6057 C   0  0  0  0  0  0  0  0  0  0  0  0
  137.6638  149.9538  141.7688 C   0  0  0  0  0  0  0  0  0  0  0  0
  137.5091  152.6033  144.9557 C   0  0  0  0  0  0  0  0  0  0  0  0
  136.8131  150.7653  143.7756 C   0  0  0  0  0  0  0  0  0  0  0  0
  136.7050  150.0802  142.7142 C   0  0  0  0  0  0  0  0  0  0  0  0
  139.5408  149.7212  140.4013 C   0  0  0  0  0  0  0  0  0  0  0  0
  136.2620  152.9717  145.1869 C   0  0  0  0  0  0  0  0  0  0  0  0
  135.2510  152.0001  145.1574 C   0  0  0  0  0  0  0  0  0  0  0  0
  135.6208  150.8558  144.6199 C   0  0  0  0  0  0  0  0  0  0  0  0
  137.0275  149.4751  140.6885 O   0  0  0  0  0  0  0  0  0  0  0  0
  1  2  1  0
  2  3  2  0
  1  4  2  0
  4  5  1  0
  3  6  1  0
  3  7  1  0
  5  8  1  0
  7  8  1  0
  4  9  1  0
  6 10  2  0
 10 11  1  0
  7 12  1  0
 11 12  1  0
  5 13  2  0
M  END
$$$$
