
     RDKit          3D

  9  9  0  0  0  0  0  0  0  0999 V2000
  138.7240  151.5758  143.3184 C   0  0  0  0  0  0  0  0  0  0  0  0
  137.9193  152.3258  143.7536 C   0  0  0  0  0  0  0  0  0  0  0  0
  136.7526  151.8075  144.4391 C   0  0  0  0  0  0  0  0  0  0  0  0
  136.7825  150.4607  144.6808 C   0  0  0  0  0  0  0  0  0  0  0  0
  138.6208  150.0966  143.3694 C   0  0  0  0  0  0  0  0  0  0  0  0
  135.5447  152.3891  145.0626 C   0  0  0  0  0  0  0  0  0  0  0  0
  135.3318  153.4939  145.3373 C   0  0  0  0  0  0  0  0  0  0  0  0
  139.5806  149.2466  142.8001 C   0  0  0  0  0  0  0  0  0  0  0  0
  137.5819  149.5573  144.1606 C   0  0  0  0  0  0  0  0  0  0  0  0
  1  2  1  0
  2  3  2  0
  3  4  1  0
  1  5  2  0
  3  6  1  0
  6  7  2  0
  5  8  1  0
  4  9  2  0
  5  9  1  0
M  END
$$$$
