
     RDKit          3D

 13 14  0  0  0  0  0  0  0  0999 V2000
  138.7086  151.1469  142.6266 C   0  0  0  0  0  0  0  0  0  0  0  0
  138.5250  151.9368  143.5112 C   0  0  0  0  0  0  0  0  0  0  0  0
  137.3811  151.6572  144.3961 C   0  0  0  0  0  0  0  0  0  0  0  0
  139.7008  151.1089  141.6121 C   0  0  0  0  0  0  0  0  0  0  0  0
  136.7115  150.4275  144.0247 C   0  0  0  0  0  0  0  0  0  0  0  0
  139.4933  150.4714  140.3262 C   0  0  0  0  0  0  0  0  0  0  0  0
  138.3034  149.7102  140.4068 C   0  0  0  0  0  0  0  0  0  0  0  0
  137.7401  150.0401  142.1735 C   0  0  0  0  0  0  0  0  0  0  0  0
  137.0235  152.5597  145.4530 C   0  0  0  0  0  0  0  0  0  0  0  0
  137.9777  149.0926  139.0251 C   0  0  0  0  0  0  0  0  0  0  0  0
  136.8795  149.8232  142.9192 C   0  0  0  0  0  0  0  0  0  0  0  0
  137.4487  149.4726  141.3379 C   0  0  0  0  0  0  0  0  0  0  0  0
  135.7202  152.5661  145.9908 C   0  0  0  0  0  0  0  0  0  0  0  0
  1  2  1  0
  2  3  2  0
  1  4  1  0
  3  5  1  0
  4  6  2  0
  6  7  1  0
  1  8  2  0
  3  9  1  0
  7 10  1  0
  5 11  2  0
  8 11  1  0
  7 12  2  0
  8 12  1  0
  9 13  1  0
M  END
$$$$
