
     RDKit          3D

  9  9  0  0  0  0  0  0  0  0999 V2000
  140.3019  150.2145  139.4802 Cl  0  0  0  0  0  0  0  0  0  0  0  0
  138.6758  150.1820  140.5311 C   0  0  0  0  0  0  0  0  0  0  0  0
  137.6364  149.3800  140.0902 C   0  0  0  0  0  0  0  0  0  0  0  0
  138.8645  150.7144  141.4528 C   0  0  0  0  0  0  0  0  0  0  0  0
  136.5623  149.5846  140.7692 C   0  0  0  0  0  0  0  0  0  0  0  0
  136.4105  150.3672  141.9090 C   0  0  0  0  0  0  0  0  0  0  0  0
  135.2467  150.5950  142.7376 C   0  0  0  0  0  0  0  0  0  0  0  0
  137.6984  150.9814  142.3509 C   0  0  0  0  0  0  0  0  0  0  0  0
  137.8527  151.6996  143.7037 C   0  0  0  0  0  0  0  0  0  0  0  0
  1  2  1  0
  2  3  2  0
  2  4  1  0
  3  5  1  0
  5  6  2  0
  6  7  1  0
  4  8  2  0
  6  8  1  0
  8  9  1  0
M  END
$$$$
