
     RDKit          3D

 13 13  0  0  0  0  0  0  0  0999 V2000
  138.7086  151.1469  142.6266 C   0  0  0  0  0  0  0  0  0  0  0  0
  138.5250  151.9368  143.5112 C   0  0  0  0  0  0  0  0  0  0  0  0
  137.3811  151.6572  144.3961 C   0  0  0  0  0  0  0  0  0  0  0  0
  139.7008  151.1089  141.6121 C   0  0  0  0  0  0  0  0  0  0  0  0
  136.7115  150.4275  144.0247 C   0  0  0  0  0  0  0  0  0  0  0  0
  139.4933  150.4714  140.3262 C   0  0  0  0  0  0  0  0  0  0  0  0
  138.3034  149.7102  140.4068 C   0  0  0  0  0  0  0  0  0  0  0  0
  137.7753  150.0657  142.1256 C   0  0  0  0  0  0  0  0  0  0  0  0
  137.1584  152.6311  145.4327 C   0  0  0  0  0  0  0  0  0  0  0  0
  140.5320  150.6248  139.3927 C   0  0  0  0  0  0  0  0  0  0  0  0
  136.9059  149.9112  142.8627 C   0  0  0  0  0  0  0  0  0  0  0  0
  137.7036  149.5295  141.0823 C   0  0  0  0  0  0  0  0  0  0  0  0
  137.4381  148.9775  140.3351 C   0  0  0  0  0  0  0  0  0  0  0  0
  1  2  1  0
  2  3  2  0
  1  4  1  0
  3  5  1  0
  4  6  2  3
  6  7  1  0
  1  8  2  0
  3  9  1  0
  6 10  1  0
  5 11  2  0
  8 11  1  0
  8 12  1  0
  7 13  3  0
M  END
$$$$
