
     RDKit          3D

 14 15  0  0  0  0  0  0  0  0999 V2000
  138.7086  151.1469  142.6266 C   0  0  0  0  0  0  0  0  0  0  0  0
  138.5250  151.9368  143.5112 C   0  0  0  0  0  0  0  0  0  0  0  0
  137.3811  151.6572  144.3961 C   0  0  0  0  0  0  0  0  0  0  0  0
  139.7008  151.1089  141.6121 C   0  0  0  0  0  0  0  0  0  0  0  0
  139.6260  150.4243  140.3624 C   0  0  0  0  0  0  0  0  0  0  0  0
  138.4083  149.6133  140.3617 C   0  0  0  0  0  0  0  0  0  0  0  0
  137.5986  150.0970  142.5687 C   0  0  0  0  0  0  0  0  0  0  0  0
  136.5953  150.6846  144.0292 C   0  0  0  0  0  0  0  0  0  0  0  0
  140.4825  150.3888  139.2680 C   0  0  0  0  0  0  0  0  0  0  0  0
  137.0495  152.4011  145.6361 C   0  0  0  0  0  0  0  0  0  0  0  0
  137.3501  149.3579  141.4854 C   0  0  0  0  0  0  0  0  0  0  0  0
  135.8400  152.9455  145.6153 C   0  0  0  0  0  0  0  0  0  0  0  0
  138.0978  148.9747  139.1708 C   0  0  0  0  0  0  0  0  0  0  0  0
  137.0562  148.1176  139.0875 C   0  0  0  0  0  0  0  0  0  0  0  0
  1  2  1  0
  2  3  2  0
  1  4  1  0
  4  5  2  0
  5  6  1  0
  1  7  2  0
  3  8  1  0
  7  8  1  0
  5  9  1  0
  3 10  1  0
  6 11  1  0
  7 11  1  0
 10 12  1  0
  6 13  2  3
 13 14  1  0
M  END
$$$$
