
     RDKit          3D

  9  9  0  0  0  0  0  0  0  0999 V2000
  138.9697  151.3146  142.5684 C   0  0  0  0  0  0  0  0  0  0  0  0
  138.6018  152.0883  143.2657 C   0  0  0  0  0  0  0  0  0  0  0  0
  137.5210  151.7905  144.2146 C   0  0  0  0  0  0  0  0  0  0  0  0
  139.9450  151.4362  141.4348 C   0  0  0  0  0  0  0  0  0  0  0  0
  137.4509  150.5150  144.7895 C   0  0  0  0  0  0  0  0  0  0  0  0
  139.6483  150.6881  140.3006 C   0  0  0  0  0  0  0  0  0  0  0  0
  138.5290  149.9149  140.3372 C   0  0  0  0  0  0  0  0  0  0  0  0
  136.5956  152.7971  144.5635 C   0  0  0  0  0  0  0  0  0  0  0  0
  138.2995  150.0192  142.2365 C   0  0  0  0  0  0  0  0  0  0  0  0
  1  2  2  3
  2  3  1  0
  1  4  1  0
  3  5  2  0
  4  6  2  0
  6  7  1  0
  3  8  1  0
  1  9  1  0
  7  9  2  0
M  END
$$$$
