
     RDKit          3D

 14 15  0  0  0  0  0  0  0  0999 V2000
  139.5550  150.5075  140.4438 C   0  0  0  0  0  0  0  0  0  0  0  0
  139.2165  150.0149  139.3725 C   0  0  0  0  0  0  0  0  0  0  0  0
  138.8581  150.3072  141.5852 C   0  0  0  0  0  0  0  0  0  0  0  0
  139.2270  150.3459  142.8891 C   0  0  0  0  0  0  0  0  0  0  0  0
  138.5608  151.2821  143.6742 C   0  0  0  0  0  0  0  0  0  0  0  0
  137.8570  149.4552  139.3184 C   0  0  0  0  0  0  0  0  0  0  0  0
  137.3188  148.9492  138.1191 C   0  0  0  0  0  0  0  0  0  0  0  0
  137.4559  151.5660  143.4421 C   0  0  0  0  0  0  0  0  0  0  0  0
  136.7226  152.4686  144.4558 C   0  0  0  0  0  0  0  0  0  0  0  0
  136.9013  150.9868  142.2674 C   0  0  0  0  0  0  0  0  0  0  0  0
  135.4749  152.1542  144.9656 C   0  0  0  0  0  0  0  0  0  0  0  0
  137.6107  150.3740  141.4480 C   0  0  0  0  0  0  0  0  0  0  0  0
  135.3043  151.0907  145.6243 C   0  0  0  0  0  0  0  0  0  0  0  0
  137.0126  149.8050  140.3804 N   0  0  0  0  0  0  0  0  0  0  0  0
  1  2  2  0
  1  3  1  0
  3  4  1  0
  4  5  2  0
  2  6  1  0
  6  7  1  0
  5  8  1  0
  8  9  1  0
  8 10  2  0
  9 11  1  0
  3 12  2  0
 10 12  1  0
 11 13  1  0
  6 14  2  0
 12 14  1  0
M  END
$$$$
