
     RDKit          3D

 14 15  0  0  0  0  0  0  0  0999 V2000
  138.9697  151.3146  142.5684 C   0  0  0  0  0  0  0  0  0  0  0  0
  138.6018  152.0883  143.2657 C   0  0  0  0  0  0  0  0  0  0  0  0
  139.7627  151.4691  141.3553 C   0  0  0  0  0  0  0  0  0  0  0  0
  137.7629  151.7021  144.3622 C   0  0  0  0  0  0  0  0  0  0  0  0
  137.3916  150.2976  144.2722 C   0  0  0  0  0  0  0  0  0  0  0  0
  139.5884  150.5272  140.3063 C   0  0  0  0  0  0  0  0  0  0  0  0
  138.7536  149.4626  140.7016 C   0  0  0  0  0  0  0  0  0  0  0  0
  137.8316  149.5886  141.7036 C   0  0  0  0  0  0  0  0  0  0  0  0
  138.0887  150.1737  142.9585 C   0  0  0  0  0  0  0  0  0  0  0  0
  137.1789  152.3135  145.6073 C   0  0  0  0  0  0  0  0  0  0  0  0
  140.4233  150.5557  139.2188 C   0  0  0  0  0  0  0  0  0  0  0  0
  136.0031  152.7656  145.5016 C   0  0  0  0  0  0  0  0  0  0  0  0
  135.7306  153.9932  145.0598 O   0  0  0  0  0  0  0  0  0  0  0  0
  134.8926  152.0640  145.8583 O   0  0  0  0  0  0  0  0  0  0  0  0
  1  2  1  0
  1  3  1  0
  2  4  2  0
  4  5  1  0
  3  6  2  0
  6  7  1  0
  7  8  2  0
  1  9  2  0
  5  9  1  0
  8  9  1  0
  4 10  1  0
  6 11  1  0
 10 12  1  0
 12 13  2  0
 12 14  1  0
M  END
$$$$
