
     RDKit          3D

 14 15  0  0  0  0  0  0  0  0999 V2000
  138.9697  151.3146  142.5684 C   0  0  0  0  0  0  0  0  0  0  0  0
  138.6018  152.0883  143.2657 C   0  0  0  0  0  0  0  0  0  0  0  0
  137.6374  151.6902  144.0814 C   0  0  0  0  0  0  0  0  0  0  0  0
  140.0289  151.3257  141.4197 C   0  0  0  0  0  0  0  0  0  0  0  0
  137.1948  150.3123  143.8930 C   0  0  0  0  0  0  0  0  0  0  0  0
  139.8113  150.4471  140.2754 C   0  0  0  0  0  0  0  0  0  0  0  0
  138.3589  149.9782  142.3814 C   0  0  0  0  0  0  0  0  0  0  0  0
  136.9904  152.6012  145.1159 C   0  0  0  0  0  0  0  0  0  0  0  0
  139.0526  149.5381  140.1691 C   0  0  0  0  0  0  0  0  0  0  0  0
  138.4971  148.9797  139.0146 C   0  0  0  0  0  0  0  0  0  0  0  0
  137.2738  149.4769  143.0123 N   0  0  0  0  0  0  0  0  0  0  0  0
  138.3377  149.0791  141.1562 N   0  0  0  0  0  0  0  0  0  0  0  0
  140.7003  150.5539  139.2227 C   0  0  0  0  0  0  0  0  0  0  0  0
  137.2763  148.7236  138.7713 C   0  0  0  0  0  0  0  0  0  0  0  0
  1  2  1  0
  2  3  2  0
  1  4  1  0
  3  5  1  0
  4  6  1  0
  1  7  2  0
  3  8  1  0
  6  9  1  0
  9 10  2  3
  5 11  2  0
  7 11  1  0
  7 12  1  0
  9 12  1  0
  6 13  2  0
 10 14  1  0
M  END
$$$$
