
     RDKit          3D

 14 15  0  0  0  0  0  0  0  0999 V2000
  139.0010  149.7643  140.3643 C   0  0  0  0  0  0  0  0  0  0  0  0
  138.7144  149.5449  139.1247 C   0  0  0  0  0  0  0  0  0  0  0  0
  138.1840  150.1020  141.2852 C   0  0  0  0  0  0  0  0  0  0  0  0
  137.3200  149.5871  138.6815 C   0  0  0  0  0  0  0  0  0  0  0  0
  136.4668  149.5647  139.6600 C   0  0  0  0  0  0  0  0  0  0  0  0
  138.6203  150.4924  142.6513 C   0  0  0  0  0  0  0  0  0  0  0  0
  137.7616  150.9851  143.6296 C   0  0  0  0  0  0  0  0  0  0  0  0
  136.4770  150.9768  143.2092 C   0  0  0  0  0  0  0  0  0  0  0  0
  135.5254  151.4160  144.2399 C   0  0  0  0  0  0  0  0  0  0  0  0
  136.7403  150.0044  140.9819 C   0  0  0  0  0  0  0  0  0  0  0  0
  135.1653  151.0499  145.2747 C   0  0  0  0  0  0  0  0  0  0  0  0
  135.8318  150.3852  142.0428 C   0  0  0  0  0  0  0  0  0  0  0  0
  134.9232  151.9066  146.4012 C   0  0  0  0  0  0  0  0  0  0  0  0
  135.0328  153.2803  146.0351 C   0  0  0  0  0  0  0  0  0  0  0  0
  1  2  2  0
  1  3  1  0
  2  4  1  0
  4  5  2  0
  3  6  1  0
  6  7  2  0
  7  8  1  0
  8  9  1  0
  3 10  2  0
  5 10  1  0
  9 11  2  3
  8 12  2  0
 10 12  1  0
 11 13  1  0
 13 14  1  0
M  END
$$$$
