
     RDKit          3D

  9  9  0  0  0  0  0  0  0  0999 V2000
  138.7086  151.1469  142.6266 C   0  0  0  0  0  0  0  0  0  0  0  0
  138.5250  151.9368  143.5112 C   0  0  0  0  0  0  0  0  0  0  0  0
  137.3905  151.8077  144.0741 C   0  0  0  0  0  0  0  0  0  0  0  0
  136.5952  150.6189  143.9723 C   0  0  0  0  0  0  0  0  0  0  0  0
  137.9808  149.9629  142.2545 C   0  0  0  0  0  0  0  0  0  0  0  0
  135.4269  150.3965  144.8060 C   0  0  0  0  0  0  0  0  0  0  0  0
  136.8815  149.7122  143.0096 C   0  0  0  0  0  0  0  0  0  0  0  0
  140.0349  151.2683  141.7254 O   0  0  0  0  0  0  0  0  0  0  0  0
  139.9016  150.5249  140.5014 C   0  0  0  0  0  0  0  0  0  0  0  0
  1  2  1  0
  2  3  2  0
  3  4  1  0
  1  5  2  0
  4  6  1  0
  4  7  2  0
  5  7  1  0
  1  8  1  0
  8  9  1  0
M  END
$$$$
