
     RDKit          3D

 10  9  0  0  0  0  0  0  0  0999 V2000
  138.9697  151.3146  142.5684 C   0  0  0  0  0  0  0  0  0  0  0  0
  138.6018  152.0883  143.2657 C   0  0  0  0  0  0  0  0  0  0  0  0
  139.7627  151.4691  141.3553 C   0  0  0  0  0  0  0  0  0  0  0  0
  137.7629  151.7021  144.3622 C   0  0  0  0  0  0  0  0  0  0  0  0
  136.8760  152.4884  145.1644 C   0  0  0  0  0  0  0  0  0  0  0  0
  137.0828  153.8003  145.1271 C   0  0  0  0  0  0  0  0  0  0  0  0
  135.7474  152.0603  145.7143 C   0  0  0  0  0  0  0  0  0  0  0  0
  139.5959  150.5273  140.2657 C   0  0  0  0  0  0  0  0  0  0  0  0
  134.7225  152.7474  145.9282 C   0  0  0  0  0  0  0  0  0  0  0  0
  140.3449  150.4120  139.0890 C   0  0  0  0  0  0  0  0  0  0  0  0
  1  2  1  0
  1  3  1  0
  2  4  2  3
  4  5  1  0
  5  6  1  0
  5  7  2  3
  3  8  2  3
  7  9  1  0
  8 10  1  0
M  END
$$$$
