
     RDKit          3D

 10 10  0  0  0  0  0  0  0  0999 V2000
  140.3019  150.2145  139.4802 Cl  0  0  0  0  0  0  0  0  0  0  0  0
  138.6758  150.1820  140.5311 C   0  0  0  0  0  0  0  0  0  0  0  0
  137.6364  149.3800  140.0902 C   0  0  0  0  0  0  0  0  0  0  0  0
  139.0293  150.8783  141.6179 C   0  0  0  0  0  0  0  0  0  0  0  0
  136.6543  149.6401  140.8165 C   0  0  0  0  0  0  0  0  0  0  0  0
  136.6465  150.4482  141.8728 C   0  0  0  0  0  0  0  0  0  0  0  0
  135.4265  150.7339  142.7828 C   0  0  0  0  0  0  0  0  0  0  0  0
  137.8510  151.0581  142.3906 C   0  0  0  0  0  0  0  0  0  0  0  0
  135.6680  150.8840  144.1243 C   0  0  0  0  0  0  0  0  0  0  0  0
  136.3873  150.3464  144.9244 C   0  0  0  0  0  0  0  0  0  0  0  0
  1  2  1  0
  2  3  2  0
  2  4  1  0
  3  5  1  0
  5  6  2  0
  6  7  1  0
  4  8  2  0
  6  8  1  0
  7  9  2  3
  9 10  1  0
M  END
$$$$
