
     RDKit          3D

 10 10  0  0  0  0  0  0  0  0999 V2000
  138.9697  151.3146  142.5684 C   0  0  0  0  0  0  0  0  0  0  0  0
  138.6018  152.0883  143.2657 C   0  0  0  0  0  0  0  0  0  0  0  0
  137.6687  151.8115  144.0583 C   0  0  0  0  0  0  0  0  0  0  0  0
  137.4111  150.3597  144.4812 C   0  0  0  0  0  0  0  0  0  0  0  0
  136.7342  152.6392  144.8895 C   0  0  0  0  0  0  0  0  0  0  0  0
  138.6202  149.8844  142.6454 C   0  0  0  0  0  0  0  0  0  0  0  0
  135.4452  152.2536  145.2446 C   0  0  0  0  0  0  0  0  0  0  0  0
  137.9213  149.4908  143.6863 C   0  0  0  0  0  0  0  0  0  0  0  0
  134.9569  151.0173  145.1997 C   0  0  0  0  0  0  0  0  0  0  0  0
  134.6801  153.3893  145.7441 C   0  0  0  0  0  0  0  0  0  0  0  0
  1  2  2  0
  2  3  1  0
  3  4  2  0
  3  5  1  0
  1  6  1  0
  5  7  2  3
  4  8  1  0
  6  8  2  0
  7  9  1  0
  7 10  1  0
M  END
$$$$
