
     RDKit          3D

 10 10  0  0  0  0  0  0  0  0999 V2000
  138.9697  151.3146  142.5684 C   0  0  0  0  0  0  0  0  0  0  0  0
  138.6018  152.0883  143.2657 C   0  0  0  0  0  0  0  0  0  0  0  0
  137.4864  151.7371  144.1980 C   0  0  0  0  0  0  0  0  0  0  0  0
  139.9864  151.4011  141.4219 C   0  0  0  0  0  0  0  0  0  0  0  0
  138.3662  149.9208  142.4643 C   0  0  0  0  0  0  0  0  0  0  0  0
  137.0554  150.4385  144.0798 C   0  0  0  0  0  0  0  0  0  0  0  0
  137.4837  149.4758  143.2809 C   0  0  0  0  0  0  0  0  0  0  0  0
  139.9674  150.5701  140.2923 C   0  0  0  0  0  0  0  0  0  0  0  0
  140.8267  150.8324  139.1773 C   0  0  0  0  0  0  0  0  0  0  0  0
  136.8868  152.8202  145.2662 C   0  0  0  0  0  0  0  0  0  0  0  0
  1  2  1  0
  2  3  2  0
  1  4  1  0
  1  5  2  0
  3  6  1  0
  5  7  1  0
  6  7  2  0
  4  8  2  3
  8  9  1  0
  3 10  1  0
M  END
$$$$
