
     RDKit          3D

 10 10  0  0  0  0  0  0  0  0999 V2000
  139.2620  151.0921  142.4039 C   0  0  0  0  0  0  0  0  0  0  0  0
  138.8618  152.1315  142.9023 C   0  0  0  0  0  0  0  0  0  0  0  0
  137.7838  151.8936  143.8932 C   0  0  0  0  0  0  0  0  0  0  0  0
  137.3596  150.5423  144.0627 C   0  0  0  0  0  0  0  0  0  0  0  0
  136.3232  150.4823  145.1226 C   0  0  0  0  0  0  0  0  0  0  0  0
  139.4748  150.9226  141.2198 C   0  0  0  0  0  0  0  0  0  0  0  0
  135.8799  151.6090  145.5505 C   0  0  0  0  0  0  0  0  0  0  0  0
  137.1945  152.7449  144.6426 C   0  0  0  0  0  0  0  0  0  0  0  0
  134.6613  151.4267  146.5662 C   0  0  0  0  0  0  0  0  0  0  0  0
  136.2317  152.8581  145.3570 C   0  0  0  0  0  0  0  0  0  0  0  0
  1  2  1  0
  2  3  2  3
  3  4  1  0
  4  5  2  0
  1  6  2  0
  5  7  1  0
  3  8  1  0
  7  9  1  0
  7 10  2  0
  8 10  1  0
M  END
$$$$
