
     RDKit          3D

 10 10  0  0  0  0  0  0  0  0999 V2000
  140.3019  150.2145  139.4802 Cl  0  0  0  0  0  0  0  0  0  0  0  0
  138.6758  150.1820  140.5311 C   0  0  0  0  0  0  0  0  0  0  0  0
  137.6364  149.3800  140.0902 C   0  0  0  0  0  0  0  0  0  0  0  0
  137.5436  148.9622  138.7410 C   0  0  0  0  0  0  0  0  0  0  0  0
  138.4827  150.4324  141.7166 C   0  0  0  0  0  0  0  0  0  0  0  0
  136.4911  149.4153  140.9672 C   0  0  0  0  0  0  0  0  0  0  0  0
  137.3926  150.3484  142.5006 C   0  0  0  0  0  0  0  0  0  0  0  0
  139.7583  151.2525  142.5446 Cl  0  0  0  0  0  0  0  0  0  0  0  0
  135.2522  148.9164  140.1255 C   0  0  0  0  0  0  0  0  0  0  0  0
  136.3421  149.9813  142.1815 C   0  0  0  0  0  0  0  0  0  0  0  0
  1  2  1  0
  2  3  2  0
  3  4  1  0
  2  5  1  0
  3  6  1  0
  5  7  2  0
  5  8  1  0
  6  9  1  0
  6 10  2  0
  7 10  1  0
M  END
$$$$
