
     RDKit          3D

  9  8  0  0  0  0  0  0  0  0999 V2000
  138.7086  151.1469  142.6266 C   0  0  0  0  0  0  0  0  0  0  0  0
  138.5250  151.9368  143.5112 C   0  0  0  0  0  0  0  0  0  0  0  0
  137.3811  151.6572  144.3961 C   0  0  0  0  0  0  0  0  0  0  0  0
  136.7845  152.7100  145.2487 C   0  0  0  0  0  0  0  0  0  0  0  0
  139.0389  151.5321  141.1684 C   0  0  0  0  0  0  0  0  0  0  0  0
  137.1519  153.9247  145.0446 C   0  0  0  0  0  0  0  0  0  0  0  0
  139.6129  150.5394  140.4341 C   0  0  0  0  0  0  0  0  0  0  0  0
  139.4322  150.4407  138.9873 C   0  0  0  0  0  0  0  0  0  0  0  0
  136.0256  152.3742  145.9931 C   0  0  0  0  0  0  0  0  0  0  0  0
  1  2  1  0
  2  3  2  3
  3  4  1  0
  1  5  1  0
  4  6  1  0
  5  7  1  0
  7  8  1  0
  4  9  2  0
M  END
$$$$
