
     RDKit          3D

 11 12  0  0  0  0  0  0  0  0999 V2000
  139.2620  151.0921  142.4039 C   0  0  0  0  0  0  0  0  0  0  0  0
  138.8618  152.1315  142.9023 C   0  0  0  0  0  0  0  0  0  0  0  0
  137.7838  151.8936  143.8932 C   0  0  0  0  0  0  0  0  0  0  0  0
  138.6285  149.7791  142.4985 C   0  0  0  0  0  0  0  0  0  0  0  0
  137.6223  149.7014  143.4857 C   0  0  0  0  0  0  0  0  0  0  0  0
  137.3782  153.1180  144.6924 C   0  0  0  0  0  0  0  0  0  0  0  0
  136.2207  153.0330  145.2876 C   0  0  0  0  0  0  0  0  0  0  0  0
  137.2330  150.6336  144.1986 C   0  0  0  0  0  0  0  0  0  0  0  0
  135.3778  151.9139  145.4837 C   0  0  0  0  0  0  0  0  0  0  0  0
  134.3645  151.8693  146.3174 C   0  0  0  0  0  0  0  0  0  0  0  0
  135.6704  150.7003  144.7338 C   0  0  0  0  0  0  0  0  0  0  0  0
  1  2  1  0
  2  3  2  0
  1  4  2  0
  4  5  1  0
  3  6  1  0
  6  7  2  0
  3  8  1  0
  5  8  2  0
  7  9  1  0
  9 10  1  0
  8 11  1  0
  9 11  2  0
M  END
$$$$
