
     RDKit          3D

  9  9  0  0  0  0  0  0  0  0999 V2000
  138.9697  151.3146  142.5684 C   0  0  0  0  0  0  0  0  0  0  0  0
  138.6018  152.0883  143.2657 C   0  0  0  0  0  0  0  0  0  0  0  0
  137.4864  151.7371  144.1980 C   0  0  0  0  0  0  0  0  0  0  0  0
  139.9864  151.4011  141.4219 C   0  0  0  0  0  0  0  0  0  0  0  0
  137.1565  150.3492  144.0125 C   0  0  0  0  0  0  0  0  0  0  0  0
  139.8246  150.4677  140.3200 C   0  0  0  0  0  0  0  0  0  0  0  0
  138.1718  149.9550  142.5888 C   0  0  0  0  0  0  0  0  0  0  0  0
  140.7398  150.6391  139.1867 C   0  0  0  0  0  0  0  0  0  0  0  0
  136.8239  152.5670  145.0923 C   0  0  0  0  0  0  0  0  0  0  0  0
  1  2  1  0
  2  3  2  0
  1  4  1  0
  3  5  1  0
  4  6  2  3
  1  7  2  0
  5  7  1  0
  6  8  1  0
  3  9  1  0
M  END
$$$$
