
     RDKit          3D

 11 11  0  0  0  0  0  0  0  0999 V2000
  140.3019  150.2145  139.4802 Cl  0  0  0  0  0  0  0  0  0  0  0  0
  138.6758  150.1820  140.5311 C   0  0  0  0  0  0  0  0  0  0  0  0
  137.6364  149.3800  140.0902 C   0  0  0  0  0  0  0  0  0  0  0  0
  139.0293  150.8783  141.6179 C   0  0  0  0  0  0  0  0  0  0  0  0
  136.4821  149.4702  141.0029 C   0  0  0  0  0  0  0  0  0  0  0  0
  136.5997  150.3282  142.1426 C   0  0  0  0  0  0  0  0  0  0  0  0
  135.4514  150.4834  143.0679 C   0  0  0  0  0  0  0  0  0  0  0  0
  135.8625  151.2504  144.3029 C   0  0  0  0  0  0  0  0  0  0  0  0
  134.8669  151.8789  145.0890 C   0  0  0  0  0  0  0  0  0  0  0  0
  135.2761  152.5812  146.2098 C   0  0  0  0  0  0  0  0  0  0  0  0
  137.9092  150.9592  142.4208 C   0  0  0  0  0  0  0  0  0  0  0  0
  1  2  1  0
  2  3  2  0
  2  4  1  0
  3  5  1  0
  5  6  2  0
  6  7  1  0
  7  8  1  0
  8  9  1  0
  9 10  1  0
  4 11  2  0
  6 11  1  0
M  END
$$$$
