
     RDKit          3D

 11 12  0  0  0  0  0  0  0  0999 V2000
  139.2620  151.0921  142.4039 C   0  0  0  0  0  0  0  0  0  0  0  0
  138.8618  152.1315  142.9023 C   0  0  0  0  0  0  0  0  0  0  0  0
  137.9130  151.7995  143.7812 C   0  0  0  0  0  0  0  0  0  0  0  0
  138.7614  149.7943  142.5265 C   0  0  0  0  0  0  0  0  0  0  0  0
  137.2974  152.8737  144.6385 C   0  0  0  0  0  0  0  0  0  0  0  0
  137.4402  150.4143  143.9194 C   0  0  0  0  0  0  0  0  0  0  0  0
  135.9792  152.6812  145.1315 C   0  0  0  0  0  0  0  0  0  0  0  0
  136.4191  150.3072  145.0115 C   0  0  0  0  0  0  0  0  0  0  0  0
  137.9148  149.4613  143.4218 N   0  0  0  0  0  0  0  0  0  0  0  0
  135.6914  151.3863  145.5872 C   0  0  0  0  0  0  0  0  0  0  0  0
  135.2002  153.6975  145.3826 O   0  0  0  0  0  0  0  0  0  0  0  0
  1  2  1  0
  2  3  2  0
  1  4  2  0
  3  5  1  0
  3  6  1  0
  5  7  1  0
  6  8  1  0
  4  9  1  0
  6  9  2  0
  7 10  1  0
  8 10  2  0
  7 11  2  0
M  END
$$$$
