
     RDKit          3D

 11 12  0  0  0  0  0  0  0  0999 V2000
  138.7086  151.1469  142.6266 C   0  0  0  0  0  0  0  0  0  0  0  0
  138.5250  151.9368  143.5112 C   0  0  0  0  0  0  0  0  0  0  0  0
  137.3811  151.6572  144.3961 C   0  0  0  0  0  0  0  0  0  0  0  0
  139.7008  151.1089  141.6121 C   0  0  0  0  0  0  0  0  0  0  0  0
  136.7115  150.4275  144.0247 C   0  0  0  0  0  0  0  0  0  0  0  0
  137.9015  150.0212  142.3179 C   0  0  0  0  0  0  0  0  0  0  0  0
  138.2227  149.2897  141.1482 C   0  0  0  0  0  0  0  0  0  0  0  0
  136.8382  152.3621  145.4464 C   0  0  0  0  0  0  0  0  0  0  0  0
  135.5638  152.4394  145.6446 C   0  0  0  0  0  0  0  0  0  0  0  0
  136.8747  149.7821  143.1509 N   0  0  0  0  0  0  0  0  0  0  0  0
  138.9857  150.0720  140.4558 C   0  0  0  0  0  0  0  0  0  0  0  0
  1  2  1  0
  2  3  2  0
  1  4  1  0
  3  5  1  0
  1  6  2  0
  6  7  1  0
  3  8  1  0
  8  9  1  0
  5 10  2  0
  6 10  1  0
  4 11  1  0
  7 11  2  0
M  END
$$$$
