
     RDKit          3D

 11 11  0  0  0  0  0  0  0  0999 V2000
  140.3019  150.2145  139.4802 Cl  0  0  0  0  0  0  0  0  0  0  0  0
  138.6758  150.1820  140.5311 C   0  0  0  0  0  0  0  0  0  0  0  0
  137.6364  149.3800  140.0902 C   0  0  0  0  0  0  0  0  0  0  0  0
  138.8645  150.7144  141.4528 C   0  0  0  0  0  0  0  0  0  0  0  0
  136.5623  149.5846  140.7692 C   0  0  0  0  0  0  0  0  0  0  0  0
  136.4105  150.3672  141.9090 C   0  0  0  0  0  0  0  0  0  0  0  0
  137.5948  151.0062  142.3502 C   0  0  0  0  0  0  0  0  0  0  0  0
  137.6180  151.7680  143.5884 C   0  0  0  0  0  0  0  0  0  0  0  0
  136.5889  151.6632  144.4906 C   0  0  0  0  0  0  0  0  0  0  0  0
  136.2244  152.8446  145.3048 C   0  0  0  0  0  0  0  0  0  0  0  0
  135.1359  152.7737  146.2185 C   0  0  0  0  0  0  0  0  0  0  0  0
  1  2  1  0
  2  3  2  0
  2  4  1  0
  3  5  1  0
  5  6  2  0
  4  7  2  0
  6  7  1  0
  7  8  1  0
  8  9  1  0
  9 10  1  0
 10 11  1  0
M  END
$$$$
